/*---------------------------------------------------------------------------*\
| =========                 |                                                 |
| \\      /  F ield         | OpenFOAM: The Open Source CFD Toolbox           |
|  \\    /   O peration     | Version:  2312                                  |
|   \\  /    A nd           | Website:  www.openfoam.com                      |
|    \\/     M anipulation  |                                                 |
\*---------------------------------------------------------------------------*/
Build  : 1d8f0d55f7-20231221 OPENFOAM=2312 version=v2312
Arch   : "LSB;label=32;scalar=64"
Exec   : interFlow
Date   : Apr 26 2024
Time   : 17:19:03
Host   : mma110629
PID    : 2180418
I/O    : uncollated
Case   : /home/asghar/OpenFOAM/TwoPhaseFlow-fork-v2212/run/growingDroplet/flowDroplet
nProcs : 1
trapFpe: Floating point exception trapping enabled (FOAM_SIGFPE).
fileModificationChecking : Monitoring run-time modified files using timeStampMaster (fileModificationSkew 5, maxFileModificationPolls 20)
allowSystemOperations : Allowing user-supplied system call operations

// * * * * * * * * * * * * * * * * * * * * * * * * * * * * * * * * * * * * * //
Create time

Overriding OptimisationSwitches according to controlDict
    fileHandler (unregistered)
    maxThreadFileBufferSize 2e+09;

    maxMasterFileBufferSize 2e+09;

Overriding fileHandler to collated
I/O    : collated [threaded] (maxThreadFileBufferSize = 2e+09).
         Requires buffer large enough to collect all data or thread support
         enabled in MPI. If MPI thread support cannot be enabled, deactivate
         threading by setting maxThreadFileBufferSize to 0 in
         OpenFOAM etc/controlDict
Create mesh for time = 0

Selecting dynamicFvMesh staticFvMesh

PIMPLE: Operating solver in PISO mode

Reading field p_rgh

Reading field U

Reading/calculating face flux field phi

Reading transportProperties

Selecting incompressible transport model Newtonian
Selecting incompressible transport model Newtonian
Selecting turbulence model type laminar
Selecting laminar stress model Stokes
Selecting surfaceTension model RDF
Selecting surfaceTension model alphaCSF
Selecting surfaceTension model gravity
No MRF models present

No finite volume options present
Selecting advectionSchemes: isoAdvection
Selecting reconstructionScheme: plicRDF
DICPCG:  Solving for pcorr, Initial residual = 0.99999999999998, Final residual = 7.918307896432e-11, No Iterations 69
time step continuity errors : sum local = 3.1653991392291e-13, global = 6.6371384164479e-16, cumulative = 6.6371384164479e-16
Courant Number mean: 0.20800000000027 max: 0.20800000000178

Starting time loop

Sampled surface:
    isoAlpha -> vtk
        isoSurface: isoAlpha : isoMethod:default regularise:full snap:1 field:alpha.oil value:(0.5)

Duplicate entry isoAlpha in runtime table reconstructionSchemes
[stack trace]
=============
#1	platforms/linux64GccDPInt32Opt/lib/libVoF.so Foam::reconstructionSchemes::addcomponentsConstructorToTable<Foam::reconstruction::isoAlpha>::addcomponentsConstructorToTable(Foam::word const&) [0x7fcd08941a45]
#2	platforms/linux64GccDPInt32Opt/lib/libgeometricVoF.so(+0x4a540) [0x7fcd03943540]
#3	/lib64/ld-linux-x86-64.so.2(+0x11b9a) [0x7fcd0c2acb9a]
#4	/lib64/ld-linux-x86-64.so.2(+0x11ca1) [0x7fcd0c2acca1]
#5	/lib/x86_64-linux-gnu/libc.so.6 _dl_catch_exception [0x7fcd07617ba5]
#6	/lib64/ld-linux-x86-64.so.2(+0x1643d) [0x7fcd0c2b143d]
#7	/lib/x86_64-linux-gnu/libc.so.6 _dl_catch_exception [0x7fcd07617b48]
#8	/lib64/ld-linux-x86-64.so.2(+0x1560a) [0x7fcd0c2b060a]
#9	/lib/x86_64-linux-gnu/libdl.so.2(+0x134c) [0x7fcd07a1b34c]
#10	/lib/x86_64-linux-gnu/libc.so.6 _dl_catch_exception [0x7fcd07617b48]
#11	/lib/x86_64-linux-gnu/libc.so.6 _dl_catch_error [0x7fcd07617c13]
#12	/lib/x86_64-linux-gnu/libdl.so.2(+0x1b59) [0x7fcd07a1bb59]
#13	/lib/x86_64-linux-gnu/libdl.so.2 dlopen [0x7fcd07a1b3da]
#14	platforms/linux64GccDPInt32Opt/lib/libOpenFOAM.so Foam::dlOpen(Foam::fileName const&, bool) [0x7fcd08506cef]
#15	platforms/linux64GccDPInt32Opt/lib/libOpenFOAM.so Foam::dlOpen(Foam::fileName const&, std::__cxx11::basic_string<char, std::char_traits<char>, std::allocator<char> >&) [0x7fcd085075f3]
#16	platforms/linux64GccDPInt32Opt/lib/libOpenFOAM.so Foam::dlLibraryTable::openLibrary(Foam::fileName const&, bool) [0x7fcd08151bcf]
#17	platforms/linux64GccDPInt32Opt/lib/libOpenFOAM.so Foam::dlLibraryTable::open(Foam::fileName const&, bool) [0x7fcd08152eda]
#18	platforms/linux64GccDPInt32Opt/lib/libOpenFOAM.so bool Foam::dlLibraryTable::open<Foam::HashTable<Foam::autoPtr<Foam::functionObject> (*)(Foam::word const&, Foam::Time const&, Foam::dictionary const&), Foam::word, Foam::Hash<Foam::word> >*>(Foam::dictionary const&, Foam::word const&, Foam::HashTable<Foam::autoPtr<Foam::functionObject> (*)(Foam::word const&, Foam::Time const&, Foam::dictionary const&), Foam::word, Foam::Hash<Foam::word> >* const&, bool) [0x7fcd08161bc8]
#19	platforms/linux64GccDPInt32Opt/lib/libOpenFOAM.so Foam::functionObject::New(Foam::word const&, Foam::Time const&, Foam::dictionary const&) [0x7fcd08160d5d]
#20	platforms/linux64GccDPInt32Opt/lib/libOpenFOAM.so Foam::functionObjects::timeControl::timeControl(Foam::word const&, Foam::Time const&, Foam::dictionary const&) [0x7fcd0817a77b]
#21	platforms/linux64GccDPInt32Opt/lib/libOpenFOAM.so Foam::functionObjectList::read() [0x7fcd081678e1]
#22	platforms/linux64GccDPInt32Opt/lib/libOpenFOAM.so Foam::Time::run() const [0x7fcd0818c5d7]
#23	interFlow(+0x3d670) [0x55b947f4d670]
#24	/lib/x86_64-linux-gnu/libc.so.6 __libc_start_main [0x7fcd074db083]
#25	interFlow(+0x4366e) [0x55b947f5366e]
=============
Duplicate entry gradAlpha in runtime table reconstructionSchemes
[stack trace]
=============
#1	platforms/linux64GccDPInt32Opt/lib/libVoF.so Foam::reconstructionSchemes::addcomponentsConstructorToTable<Foam::reconstruction::gradAlpha>::addcomponentsConstructorToTable(Foam::word const&) [0x7fcd08950f85]
#2	platforms/linux64GccDPInt32Opt/lib/libgeometricVoF.so(+0x4a630) [0x7fcd03943630]
#3	/lib64/ld-linux-x86-64.so.2(+0x11b9a) [0x7fcd0c2acb9a]
#4	/lib64/ld-linux-x86-64.so.2(+0x11ca1) [0x7fcd0c2acca1]
#5	/lib/x86_64-linux-gnu/libc.so.6 _dl_catch_exception [0x7fcd07617ba5]
#6	/lib64/ld-linux-x86-64.so.2(+0x1643d) [0x7fcd0c2b143d]
#7	/lib/x86_64-linux-gnu/libc.so.6 _dl_catch_exception [0x7fcd07617b48]
#8	/lib64/ld-linux-x86-64.so.2(+0x1560a) [0x7fcd0c2b060a]
#9	/lib/x86_64-linux-gnu/libdl.so.2(+0x134c) [0x7fcd07a1b34c]
#10	/lib/x86_64-linux-gnu/libc.so.6 _dl_catch_exception [0x7fcd07617b48]
#11	/lib/x86_64-linux-gnu/libc.so.6 _dl_catch_error [0x7fcd07617c13]
#12	/lib/x86_64-linux-gnu/libdl.so.2(+0x1b59) [0x7fcd07a1bb59]
#13	/lib/x86_64-linux-gnu/libdl.so.2 dlopen [0x7fcd07a1b3da]
#14	platforms/linux64GccDPInt32Opt/lib/libOpenFOAM.so Foam::dlOpen(Foam::fileName const&, bool) [0x7fcd08506cef]
#15	platforms/linux64GccDPInt32Opt/lib/libOpenFOAM.so Foam::dlOpen(Foam::fileName const&, std::__cxx11::basic_string<char, std::char_traits<char>, std::allocator<char> >&) [0x7fcd085075f3]
#16	platforms/linux64GccDPInt32Opt/lib/libOpenFOAM.so Foam::dlLibraryTable::openLibrary(Foam::fileName const&, bool) [0x7fcd08151bcf]
#17	platforms/linux64GccDPInt32Opt/lib/libOpenFOAM.so Foam::dlLibraryTable::open(Foam::fileName const&, bool) [0x7fcd08152eda]
#18	platforms/linux64GccDPInt32Opt/lib/libOpenFOAM.so bool Foam::dlLibraryTable::open<Foam::HashTable<Foam::autoPtr<Foam::functionObject> (*)(Foam::word const&, Foam::Time const&, Foam::dictionary const&), Foam::word, Foam::Hash<Foam::word> >*>(Foam::dictionary const&, Foam::word const&, Foam::HashTable<Foam::autoPtr<Foam::functionObject> (*)(Foam::word const&, Foam::Time const&, Foam::dictionary const&), Foam::word, Foam::Hash<Foam::word> >* const&, bool) [0x7fcd08161bc8]
#19	platforms/linux64GccDPInt32Opt/lib/libOpenFOAM.so Foam::functionObject::New(Foam::word const&, Foam::Time const&, Foam::dictionary const&) [0x7fcd08160d5d]
#20	platforms/linux64GccDPInt32Opt/lib/libOpenFOAM.so Foam::functionObjects::timeControl::timeControl(Foam::word const&, Foam::Time const&, Foam::dictionary const&) [0x7fcd0817a77b]
#21	platforms/linux64GccDPInt32Opt/lib/libOpenFOAM.so Foam::functionObjectList::read() [0x7fcd081678e1]
#22	platforms/linux64GccDPInt32Opt/lib/libOpenFOAM.so Foam::Time::run() const [0x7fcd0818c5d7]
#23	interFlow(+0x3d670) [0x55b947f4d670]
#24	/lib/x86_64-linux-gnu/libc.so.6 __libc_start_main [0x7fcd074db083]
#25	interFlow(+0x4366e) [0x55b947f5366e]
=============
Duplicate entry plicRDF in runtime table reconstructionSchemes
[stack trace]
=============
#1	platforms/linux64GccDPInt32Opt/lib/libVoF.so Foam::reconstructionSchemes::addcomponentsConstructorToTable<Foam::reconstruction::plicRDF>::addcomponentsConstructorToTable(Foam::word const&) [0x7fcd0895fa85]
#2	platforms/linux64GccDPInt32Opt/lib/libgeometricVoF.so(+0x4a720) [0x7fcd03943720]
#3	/lib64/ld-linux-x86-64.so.2(+0x11b9a) [0x7fcd0c2acb9a]
#4	/lib64/ld-linux-x86-64.so.2(+0x11ca1) [0x7fcd0c2acca1]
#5	/lib/x86_64-linux-gnu/libc.so.6 _dl_catch_exception [0x7fcd07617ba5]
#6	/lib64/ld-linux-x86-64.so.2(+0x1643d) [0x7fcd0c2b143d]
#7	/lib/x86_64-linux-gnu/libc.so.6 _dl_catch_exception [0x7fcd07617b48]
#8	/lib64/ld-linux-x86-64.so.2(+0x1560a) [0x7fcd0c2b060a]
#9	/lib/x86_64-linux-gnu/libdl.so.2(+0x134c) [0x7fcd07a1b34c]
#10	/lib/x86_64-linux-gnu/libc.so.6 _dl_catch_exception [0x7fcd07617b48]
#11	/lib/x86_64-linux-gnu/libc.so.6 _dl_catch_error [0x7fcd07617c13]
#12	/lib/x86_64-linux-gnu/libdl.so.2(+0x1b59) [0x7fcd07a1bb59]
#13	/lib/x86_64-linux-gnu/libdl.so.2 dlopen [0x7fcd07a1b3da]
#14	platforms/linux64GccDPInt32Opt/lib/libOpenFOAM.so Foam::dlOpen(Foam::fileName const&, bool) [0x7fcd08506cef]
#15	platforms/linux64GccDPInt32Opt/lib/libOpenFOAM.so Foam::dlOpen(Foam::fileName const&, std::__cxx11::basic_string<char, std::char_traits<char>, std::allocator<char> >&) [0x7fcd085075f3]
#16	platforms/linux64GccDPInt32Opt/lib/libOpenFOAM.so Foam::dlLibraryTable::openLibrary(Foam::fileName const&, bool) [0x7fcd08151bcf]
#17	platforms/linux64GccDPInt32Opt/lib/libOpenFOAM.so Foam::dlLibraryTable::open(Foam::fileName const&, bool) [0x7fcd08152eda]
#18	platforms/linux64GccDPInt32Opt/lib/libOpenFOAM.so bool Foam::dlLibraryTable::open<Foam::HashTable<Foam::autoPtr<Foam::functionObject> (*)(Foam::word const&, Foam::Time const&, Foam::dictionary const&), Foam::word, Foam::Hash<Foam::word> >*>(Foam::dictionary const&, Foam::word const&, Foam::HashTable<Foam::autoPtr<Foam::functionObject> (*)(Foam::word const&, Foam::Time const&, Foam::dictionary const&), Foam::word, Foam::Hash<Foam::word> >* const&, bool) [0x7fcd08161bc8]
#19	platforms/linux64GccDPInt32Opt/lib/libOpenFOAM.so Foam::functionObject::New(Foam::word const&, Foam::Time const&, Foam::dictionary const&) [0x7fcd08160d5d]
#20	platforms/linux64GccDPInt32Opt/lib/libOpenFOAM.so Foam::functionObjects::timeControl::timeControl(Foam::word const&, Foam::Time const&, Foam::dictionary const&) [0x7fcd0817a77b]
#21	platforms/linux64GccDPInt32Opt/lib/libOpenFOAM.so Foam::functionObjectList::read() [0x7fcd081678e1]
#22	platforms/linux64GccDPInt32Opt/lib/libOpenFOAM.so Foam::Time::run() const [0x7fcd0818c5d7]
#23	interFlow(+0x3d670) [0x55b947f4d670]
#24	/lib/x86_64-linux-gnu/libc.so.6 __libc_start_main [0x7fcd074db083]
#25	interFlow(+0x4366e) [0x55b947f5366e]
=============
Duplicate entry interface in runtime table sampledSurface
[stack trace]
=============
#1	platforms/linux64GccDPInt32Opt/lib/libgeometricVoF.so Foam::sampledSurface::addwordConstructorToTable<Foam::sampledInterface>::addwordConstructorToTable(Foam::word const&) [0x7fcd039dcf65]
#2	platforms/linux64GccDPInt32Opt/lib/libpostProcess.so(+0x6e270) [0x7fcd037d3270]
#3	/lib64/ld-linux-x86-64.so.2(+0x11b9a) [0x7fcd0c2acb9a]
#4	/lib64/ld-linux-x86-64.so.2(+0x11ca1) [0x7fcd0c2acca1]
#5	/lib/x86_64-linux-gnu/libc.so.6 _dl_catch_exception [0x7fcd07617ba5]
#6	/lib64/ld-linux-x86-64.so.2(+0x1643d) [0x7fcd0c2b143d]
#7	/lib/x86_64-linux-gnu/libc.so.6 _dl_catch_exception [0x7fcd07617b48]
#8	/lib64/ld-linux-x86-64.so.2(+0x1560a) [0x7fcd0c2b060a]
#9	/lib/x86_64-linux-gnu/libdl.so.2(+0x134c) [0x7fcd07a1b34c]
#10	/lib/x86_64-linux-gnu/libc.so.6 _dl_catch_exception [0x7fcd07617b48]
#11	/lib/x86_64-linux-gnu/libc.so.6 _dl_catch_error [0x7fcd07617c13]
#12	/lib/x86_64-linux-gnu/libdl.so.2(+0x1b59) [0x7fcd07a1bb59]
#13	/lib/x86_64-linux-gnu/libdl.so.2 dlopen [0x7fcd07a1b3da]
#14	platforms/linux64GccDPInt32Opt/lib/libOpenFOAM.so Foam::dlOpen(Foam::fileName const&, bool) [0x7fcd08506cef]
#15	platforms/linux64GccDPInt32Opt/lib/libOpenFOAM.so Foam::dlOpen(Foam::fileName const&, std::__cxx11::basic_string<char, std::char_traits<char>, std::allocator<char> >&) [0x7fcd085075f3]
#16	platforms/linux64GccDPInt32Opt/lib/libOpenFOAM.so Foam::dlLibraryTable::openLibrary(Foam::fileName const&, bool) [0x7fcd08151bcf]
#17	platforms/linux64GccDPInt32Opt/lib/libOpenFOAM.so Foam::dlLibraryTable::open(Foam::fileName const&, bool) [0x7fcd08152eda]
#18	platforms/linux64GccDPInt32Opt/lib/libOpenFOAM.so bool Foam::dlLibraryTable::open<Foam::HashTable<Foam::autoPtr<Foam::functionObject> (*)(Foam::word const&, Foam::Time const&, Foam::dictionary const&), Foam::word, Foam::Hash<Foam::word> >*>(Foam::dictionary const&, Foam::word const&, Foam::HashTable<Foam::autoPtr<Foam::functionObject> (*)(Foam::word const&, Foam::Time const&, Foam::dictionary const&), Foam::word, Foam::Hash<Foam::word> >* const&, bool) [0x7fcd08161bc8]
#19	platforms/linux64GccDPInt32Opt/lib/libOpenFOAM.so Foam::functionObject::New(Foam::word const&, Foam::Time const&, Foam::dictionary const&) [0x7fcd08160d5d]
#20	platforms/linux64GccDPInt32Opt/lib/libOpenFOAM.so Foam::functionObjects::timeControl::timeControl(Foam::word const&, Foam::Time const&, Foam::dictionary const&) [0x7fcd0817a77b]
#21	platforms/linux64GccDPInt32Opt/lib/libOpenFOAM.so Foam::functionObjectList::read() [0x7fcd081678e1]
#22	platforms/linux64GccDPInt32Opt/lib/libOpenFOAM.so Foam::Time::run() const [0x7fcd0818c5d7]
#23	interFlow(+0x3d670) [0x55b947f4d670]
#24	/lib/x86_64-linux-gnu/libc.so.6 __libc_start_main [0x7fcd074db083]
#25	interFlow(+0x4366e) [0x55b947f5366e]
=============
Sampled surface:
    freeSurf -> vtk
        sampledInterface: freeSurf

Courant Number mean: 0.20800000000027 max: 0.20800000000178
Interface Courant Number mean: 0.0057600000000128 max: 0.20800000000103
Capillary Number: 0.43125643821741
Time = 1e-05

PIMPLE: iteration 1

 From BC: theta 84.603827234849 in cell 15
 and normal (0.99556824861494 -5.3528458992297e-18 -0.094041811710465)

After: CellID : 15 ThetaD = 90 and uwall 0

 From BC: theta 84.603837659457 in cell 36
 and normal (-0.99556826572524 0 -0.094041630573063)

After: CellID : 36 ThetaD = 90 and uwall 0

 From BC: theta 80.644307324232 in cell 15
 and normal (0.9866981679922 5.3051543675308e-18 -0.16256298865621)

After: CellID : 15 ThetaD = 90 and uwall -0

 From BC: theta 80.644327377563 in cell 36
 and normal (-0.98669822488864 0 -0.16256264331515)

After: CellID : 36 ThetaD = 90 and uwall 0

 From BC: theta 79.111032968198 in cell 15
 and normal (0.9819951070158 1.055973508389e-17 -0.18890635192345)

After: CellID : 15 ThetaD = 90 and uwall -0

 From BC: theta 79.111060046571 in cell 36
 and normal (-0.98199519629411 0 -0.18890588782589)

After: CellID : 36 ThetaD = 90 and uwall 0

 From BC: theta 78.553042706508 in cell 15
 and normal (0.9801088534996 1.0539451543484e-17 -0.19846066434357)

After: CellID : 15 ThetaD = 90 and uwall -0

 From BC: theta 78.553072793796 in cell 36
 and normal (-0.98010895771558 0 -0.19846014966658)

After: CellID : 36 ThetaD = 90 and uwall 0

 From BC: theta 78.400014922182 in cell 15
 and normal (0.97957530196829 1.0533714078211e-17 -0.2010776660242)

After: CellID : 15 ThetaD = 90 and uwall -0

 From BC: theta 78.400044021082 in cell 36
 and normal (-0.9795754040898 0 -0.20107716852568)

After: CellID : 36 ThetaD = 90 and uwall 0

 From BC: theta 78.291058609677 in cell 15
 and normal (0.97919115238176 0 -0.20294010716779)

After: CellID : 15 ThetaD = 90 and uwall -0

 From BC: theta 78.291089332721 in cell 36
 and normal (-0.97919126120181 1.0529584354217e-17 -0.20293958210759)

After: CellID : 36 ThetaD = 90 and uwall 0
 Inside Phip> 0
 Inside the first hysteresis 
"0.279938" line 0.27993801236153 line count 15 id 15
Before: Hysteresis: For faceI 5240 with subFaceArea (0 0 0) and alphaf 0.27993759398313 and alphaf0 0.27993801236153
After: Hysteresis: For faceI 5240 with subFaceArea (0 0 -3.5845881056381e-09) and alphaf 0.27993801236153 and alphaf0 0.27993801236153
 Inside Phip> 0
 Inside the first hysteresis 
"0.279937" line 0.27993699908257 line count 36 id 36
Before: Hysteresis: For faceI 5261 with subFaceArea (0 0 0) and alphaf 0.27993749888134 and alphaf0 0.27993699908257
After: Hysteresis: For faceI 5261 with subFaceArea (0 0 -3.584584537663e-09) and alphaf 0.27993699908257 and alphaf0 0.27993699908257
isoAdvection: After conservative bounding: min(alpha) = -4.625494277802e-18, max(alpha) = 1 + 2.2204460492503e-16
Phase-1 volume fraction = 0.11125086666894  Min(alpha.oil) = 0  Max(alpha.oil) = 1

 From BC: theta 90 in cell 15
 and normal (0.99999998025977 0 -6.5588558929279e-17)

After: CellID : 15 ThetaD = 90 and uwall -0

 From BC: theta 90 in cell 36
 and normal (-0.99999998025977 0 -6.5588558929278e-17)

After: CellID : 36 ThetaD = 90 and uwall 0

 From BC: theta 78.150266885784 in cell 15
 and normal (0.97868951610661 9.3555969788709e-19 -0.20534563804232)

After: CellID : 15 ThetaD = 90 and uwall -0

 From BC: theta 78.150296534794 in cell 36
 and normal (-0.97868962236727 0 -0.20534513159705)

After: CellID : 36 ThetaD = 90 and uwall 0

 From BC: theta 78.587110411534 in cell 15
 and normal (0.98022668368314 -6.0605863383423e-19 -0.19787786282339)

After: CellID : 15 ThetaD = 90 and uwall 0

 From BC: theta 78.490826948682 in cell 36
 and normal (-0.97989277326633 0 -0.19952481775563)

After: CellID : 36 ThetaD = 90 and uwall 0

 From BC: theta 78.815069273577 in cell 15
 and normal (0.98100620669425 6.3059087892783e-18 -0.19397634502009)

After: CellID : 15 ThetaD = 90 and uwall -0

 From BC: theta 78.983021860568 in cell 36
 and normal (-0.9815705989835 0 -0.19109986711447)

After: CellID : 36 ThetaD = 90 and uwall 0

 From BC: theta 79.247202953116 in cell 15
 and normal (0.98244129078013 0 -0.18657199673309)

After: CellID : 15 ThetaD = 90 and uwall -0

 From BC: theta 79.070337007002 in cell 36
 and normal (-0.98186068309332 0 -0.18960379424006)

After: CellID : 36 ThetaD = 90 and uwall 0
GAMG:  Solving for p_rgh, Initial residual = 0.99999999999998, Final residual = 0.035061901657354, No Iterations 4
time step continuity errors : sum local = 0.00014238849099899, global = -6.4962900674026e-05, cumulative = -6.4962900673363e-05
GAMG:  Solving for p_rgh, Initial residual = 0.0024273104607814, Final residual = 4.1153351371959e-05, No Iterations 4
time step continuity errors : sum local = 2.3309373786211e-05, global = 1.1215602218221e-05, cumulative = -5.3747298455141e-05
GAMG:  Solving for p_rgh, Initial residual = 0.00026351664755498, Final residual = 5.6441843451504e-10, No Iterations 14
time step continuity errors : sum local = 2.5762191872805e-10, global = 1.1858971586154e-10, cumulative = -5.3747179865426e-05
ExecutionTime = 0.09 s  ClockTime = 0 s

Courant Number mean: 0.24283253525262 max: 0.54965014603652
Interface Courant Number mean: 0.00010958493058524 max: 0.036686563736786
Capillary Number: 0.43125643821741
Time = 2e-05

PIMPLE: iteration 1

 From BC: theta 78.807412050692 in cell 15
 and normal (0.98098027420729 6.3079560542734e-18 -0.19410744863655)

After: CellID : 15 ThetaD = 90 and uwall -0.0050686973710825

 From BC: theta 78.981246808616 in cell 36
 and normal (-0.98156467814284 0 -0.19113027657164)

After: CellID : 36 ThetaD = 90 and uwall 0.0031606819644457

 From BC: theta 78.911264774045 in cell 15
 and normal (0.98133049626895 6.7770155653023e-18 -0.19232903341028)

After: CellID : 15 ThetaD = 90 and uwall -0.0050686973710825

 From BC: theta 79.225928726547 in cell 36
 and normal (-0.98237194799167 0 -0.18693676952128)

After: CellID : 36 ThetaD = 90 and uwall 0.0031606819644457

 From BC: theta 78.906704388837 in cell 15
 and normal (0.98131518497401 4.9842820280948e-19 -0.19240714056244)

After: CellID : 15 ThetaD = 90 and uwall -0.0050686973710825

 From BC: theta 79.22389165792 in cell 36
 and normal (-0.98236530110413 0 -0.18697169621786)

After: CellID : 36 ThetaD = 90 and uwall 0.0031606819644457

 From BC: theta 78.957590273409 in cell 15
 and normal (0.98148567976457 -6.2676405580929e-18 -0.19153553304044)

After: CellID : 15 ThetaD = 90 and uwall -0.0050686973710825

 From BC: theta 79.335654200059 in cell 36
 and normal (-0.9827281434969 1.0567617680241e-17 -0.18505511605773)

After: CellID : 36 ThetaD = 90 and uwall 0.0031606819644457
 Inside Phip> 0
 Inside the first hysteresis 
"0.279938" line 0.27993801236153 line count 15 id 15
Before: Hysteresis: For faceI 5240 with subFaceArea (0 0 0) and alphaf 0.071937593982573 and alphaf0 0.27993801236153
After: Hysteresis: For faceI 5240 with subFaceArea (0 0 -1.579885585309e-09) and alphaf 0.27993801236153 and alphaf0 0.27993801236153
 Inside Phip> 0
 Inside the first hysteresis 
"0.279937" line 0.27993699908257 line count 36 id 36
Before: Hysteresis: For faceI 5261 with subFaceArea (0 0 0) and alphaf 0.48793749888173 and alphaf0 0.27993699908257
After: Hysteresis: For faceI 5261 with subFaceArea (0 0 -5.4165811577638e-09) and alphaf 0.27993699908257 and alphaf0 0.27993699908257
isoAdvection: After conservative bounding: min(alpha) = -5.6174275242857e-40, max(alpha) = 1 + 0
Phase-1 volume fraction = 0.11125086666896  Min(alpha.oil) = 0  Max(alpha.oil) = 1.0000102352259

 From BC: theta 90 in cell 15
 and normal (0.99999998025796 0 0)

After: CellID : 15 ThetaD = 90 and uwall -0.0050686973710825

 From BC: theta 90 in cell 36
 and normal (-0.99999998025977 0 0)

After: CellID : 36 ThetaD = 90 and uwall 0.0031606819644457

 From BC: theta 78.954690597037 in cell 15
 and normal (0.98147598510503 0 -0.19158520470568)

After: CellID : 15 ThetaD = 90 and uwall -0.0050686973710825

 From BC: theta 79.33348425071 in cell 36
 and normal (-0.98272113424398 0 -0.18509233455286)

After: CellID : 36 ThetaD = 90 and uwall 0.0031606819644457

 From BC: theta 78.886915006735 in cell 15
 and normal (0.98124867096459 -5.8243593253595e-18 -0.19274606540788)

After: CellID : 15 ThetaD = 90 and uwall -0.0050686973710825

 From BC: theta 78.65705440958 in cell 36
 and normal (-0.98046751324383 0 -0.19668110095651)

After: CellID : 36 ThetaD = 90 and uwall 0.0031606819644457

 From BC: theta 78.847346330651 in cell 15
 and normal (0.98111532583828 4.9690309577117e-19 -0.19342367333202)

After: CellID : 15 ThetaD = 90 and uwall -0.0050686973710825

 From BC: theta 77.682886528088 in cell 36
 and normal (-0.9769819015675 0 -0.2133222070239)

After: CellID : 36 ThetaD = 90 and uwall 0.0031606819644457

 From BC: theta 79.244998575317 in cell 15
 and normal (0.98243411194721 0 -0.18660979469791)

After: CellID : 15 ThetaD = 90 and uwall -0.0050686973710825

 From BC: theta 78.466152743084 in cell 36
 and normal (-0.97980675771048 0 -0.1999467862697)

After: CellID : 36 ThetaD = 90 and uwall 0.0031606819644457
GAMG:  Solving for p_rgh, Initial residual = 0.010857262904979, Final residual = 0.00025896034109427, No Iterations 4
time step continuity errors : sum local = 0.00011697511924462, global = 5.5755023644883e-05, cumulative = 2.0078437794576e-06
GAMG:  Solving for p_rgh, Initial residual = 0.018112923918642, Final residual = 0.00079817731918472, No Iterations 3
time step continuity errors : sum local = 1.2551827629723e-05, global = -2.5000869655577e-06, cumulative = -4.922431861001e-07
GAMG:  Solving for p_rgh, Initial residual = 0.0058459111390643, Final residual = 4.4930293683919e-10, No Iterations 18
time step continuity errors : sum local = 3.7065937145468e-12, global = -1.7207423897674e-12, cumulative = -4.9224490684249e-07
ExecutionTime = 0.11 s  ClockTime = 0 s

Courant Number mean: 0.24350457164053 max: 0.54603507205695
Interface Courant Number mean: 5.9351144772234e-05 max: 0.0061300244216458
Capillary Number: 0.43125643821741
Time = 3e-05

PIMPLE: iteration 1

 From BC: theta 78.834357708151 in cell 15
 and normal (0.98107145259847 -5.8209245565664e-18 -0.19364608154135)

After: CellID : 15 ThetaD = 90 and uwall -0.0054075687891236

 From BC: theta 77.677486884606 in cell 36
 and normal (-0.97696179341204 0 -0.21341427837221)

After: CellID : 36 ThetaD = 90 and uwall 0.0017113966551761

 From BC: theta 78.831521066181 in cell 15
 and normal (0.98106186422221 3.0126475871565e-18 -0.19369465291752)

After: CellID : 15 ThetaD = 90 and uwall -0.0054075687891236

 From BC: theta 77.235920479449 in cell 36
 and normal (-0.97528805819949 -1.0487611854162e-17 -0.2209371031164)

After: CellID : 36 ThetaD = 90 and uwall 0.0017113966551761

 From BC: theta 78.818095853551 in cell 15
 and normal (0.98101645189044 -6.3265405231507e-18 -0.19392452428793)

After: CellID : 15 ThetaD = 90 and uwall -0.0054075687891236

 From BC: theta 77.231069326174 in cell 36
 and normal (-0.97526934826912 -1.0487410659771e-17 -0.2210196785961)

After: CellID : 36 ThetaD = 90 and uwall 0.0017113966551761

 From BC: theta 78.823990239133 in cell 15
 and normal (0.98103639696295 0 -0.19382359978588)

After: CellID : 15 ThetaD = 90 and uwall -0.0054075687891236

 From BC: theta 77.071974481767 in cell 36
 and normal (-0.97465187756832 8.9883090230444e-18 -0.22372688160467)

After: CellID : 36 ThetaD = 90 and uwall 0.0017113966551761
 Inside Phip> 0
 Inside the first hysteresis 
"0.279938" line 0.27993801236153 line count 15 id 15
Before: Hysteresis: For faceI 5240 with subFaceArea (0 0 0) and alphaf 0.071450815146189 and alphaf0 0.27993801236153
After: Hysteresis: For faceI 5240 with subFaceArea (0 0 -1.5842705540226e-09) and alphaf 0.27993801236153 and alphaf0 0.27993801236153
 Inside Phip> 0
 Inside Phip> 0
 Inside the first hysteresis 
"0.279937" line 0.27993699908257 line count 36 id 36
Before: Hysteresis: For faceI 5261 with subFaceArea (0 0 0) and alphaf 0.4883190893824 and alphaf0 0.27993699908257
After: Hysteresis: For faceI 5261 with subFaceArea (0 0 -5.6183682648348e-09) and alphaf 0.27993699908257 and alphaf0 0.27993699908257
isoAdvection: After conservative bounding: min(alpha) = -1.1583076647759e-26, max(alpha) = 1 + 0
Phase-1 volume fraction = 0.11125086666896  Min(alpha.oil) = 0  Max(alpha.oil) = 1.0000150798149

 From BC: theta 90 in cell 15
 and normal (0.99999998025612 0 0)

After: CellID : 15 ThetaD = 90 and uwall -0.0054075687891236

 From BC: theta 90 in cell 36
 and normal (-0.99999998025977 0 0)

After: CellID : 36 ThetaD = 90 and uwall 0.0017113966551761

 From BC: theta 78.810286303354 in cell 15
 and normal (0.98099001040659 0 -0.19405823734767)

After: CellID : 15 ThetaD = 90 and uwall -0.0054075687891236

 From BC: theta 77.067389090816 in cell 36
 and normal (-0.97463396954682 0 -0.22380488244319)

After: CellID : 36 ThetaD = 90 and uwall 0.0017113966551761

 From BC: theta 78.817982116287 in cell 15
 and normal (0.98101606693092 6.3474489630061e-18 -0.19392647169324)

After: CellID : 15 ThetaD = 90 and uwall -0.0054075687891236

 From BC: theta 77.090414343553 in cell 36
 and normal (-0.97472383052272 0 -0.22341319166764)

After: CellID : 36 ThetaD = 90 and uwall 0.0017113966551761

 From BC: theta 79.227149510068 in cell 15
 and normal (0.98237593066834 0 -0.18691583838244)

After: CellID : 15 ThetaD = 90 and uwall -0.0054075687891236

 From BC: theta 78.173875305737 in cell 36
 and normal (-0.97877404449148 0 -0.20494235683357)

After: CellID : 36 ThetaD = 90 and uwall 0.0017113966551761
GAMG:  Solving for p_rgh, Initial residual = 0.052036340064066, Final residual = 0.00085221512954543, No Iterations 2
time step continuity errors : sum local = 7.7306524531162e-06, global = 3.6376537034992e-06, cumulative = 3.1454087966567e-06
GAMG:  Solving for p_rgh, Initial residual = 0.01496283910506, Final residual = 0.00041859150484601, No Iterations 2
time step continuity errors : sum local = 3.2420697060404e-06, global = -2.0879110247746e-07, cumulative = 2.9366176941793e-06
GAMG:  Solving for p_rgh, Initial residual = 0.0025883246510799, Final residual = 4.8065525199617e-10, No Iterations 15
time step continuity errors : sum local = 3.361029732927e-12, global = -6.1662103650501e-13, cumulative = 2.9366170775582e-06
ExecutionTime = 0.14 s  ClockTime = 0 s

Courant Number mean: 0.24385636736365 max: 0.53559034648699
Interface Courant Number mean: 5.2780072771551e-05 max: 0.0075456356204252
Capillary Number: 0.43125643821741
Time = 4e-05

PIMPLE: iteration 1

 From BC: theta 78.799860530711 in cell 15
 and normal (0.98095468254136 3.9530975009016e-19 -0.19423673905877)

After: CellID : 15 ThetaD = 90 and uwall -0.0048303879619011

 From BC: theta 77.085981766209 in cell 36
 and normal (-0.97470654367569 0 -0.22348859862596)

After: CellID : 36 ThetaD = 90 and uwall 0.0010009338834081

 From BC: theta 78.81407830334 in cell 15
 and normal (0.98100285159213 4.8715904862101e-19 -0.19399331217367)

After: CellID : 15 ThetaD = 90 and uwall -0.0048303879619011

 From BC: theta 77.119986659503 in cell 36
 and normal (-0.97483901189402 0 -0.22291007354873)

After: CellID : 36 ThetaD = 90 and uwall 0.0010009338834081

 From BC: theta 78.795870670504 in cell 15
 and normal (0.98094115425506 -1.9892067294464e-19 -0.19430504854159)

After: CellID : 15 ThetaD = 90 and uwall -0.0048303879619011

 From BC: theta 77.115525035878 in cell 36
 and normal (-0.97482165092606 -1.0482596414459e-17 -0.22298598360836)

After: CellID : 36 ThetaD = 90 and uwall 0.0010009338834081

 From BC: theta 78.812271362074 in cell 15
 and normal (0.98099673312275 6.3489863996763e-18 -0.1940242500372)

After: CellID : 15 ThetaD = 90 and uwall -0.0048303879619011

 From BC: theta 77.131724226058 in cell 36
 and normal (-0.97488465661347 0 -0.22271036414956)

After: CellID : 36 ThetaD = 90 and uwall 0.0010009338834081
 Inside Phip> 0
 Inside the first hysteresis 
"0.279938" line 0.27993801236153 line count 15 id 15
Before: Hysteresis: For faceI 5240 with subFaceArea (0 0 0) and alphaf 0.070981558669883 and alphaf0 0.27993801236153
After: Hysteresis: For faceI 5240 with subFaceArea (0 0 -1.5799086646737e-09) and alphaf 0.27993801236153 and alphaf0 0.27993801236153
 Inside Phip> 0
 Inside Phip> 0
 Inside the first hysteresis 
"0.279937" line 0.27993699908257 line count 36 id 36
Before: Hysteresis: For faceI 5261 with subFaceArea (0 0 0) and alphaf 0.48847203846693 and alphaf0 0.27993699908257
After: Hysteresis: For faceI 5261 with subFaceArea (0 0 -5.6145058492625e-09) and alphaf 0.27993699908257 and alphaf0 0.27993699908257
isoAdvection: After conservative bounding: min(alpha) = 0, max(alpha) = 1 + 0
Phase-1 volume fraction = 0.11125086666896  Min(alpha.oil) = 0  Max(alpha.oil) = 1.0000130321665

 From BC: theta 90 in cell 15
 and normal (0.99999998025439 0 0)

After: CellID : 15 ThetaD = 90 and uwall -0.0048303879619011

 From BC: theta 90 in cell 36
 and normal (-0.99999998025977 0 0)

After: CellID : 36 ThetaD = 90 and uwall 0.0010009338834081

 From BC: theta 78.794010466627 in cell 15
 and normal (0.98093484529776 -5.8992596835505e-18 -0.19433689634409)

After: CellID : 15 ThetaD = 90 and uwall -0.0048303879619011

 From BC: theta 77.127244236348 in cell 36
 and normal (-0.97486723978287 -1.0483086647299e-17 -0.22278659025654)

After: CellID : 36 ThetaD = 90 and uwall 0.0010009338834081

 From BC: theta 78.809845602404 in cell 15
 and normal (0.9809885177432 4.6897298952933e-19 -0.19406578280572)

After: CellID : 15 ThetaD = 90 and uwall -0.0048303879619011

 From BC: theta 77.190196367646 in cell 36
 and normal (-0.97511143182833 1.0485712529334e-17 -0.22171534795252)

After: CellID : 36 ThetaD = 90 and uwall 0.0010009338834081

 From BC: theta 79.220121162729 in cell 15
 and normal (0.98235299472224 0 -0.18703634287204)

After: CellID : 15 ThetaD = 90 and uwall -0.0048303879619011

 From BC: theta 78.245346119738 in cell 36
 and normal (-0.97902892824019 0 -0.2037212739592)

After: CellID : 36 ThetaD = 90 and uwall 0.0010009338834081
GAMG:  Solving for p_rgh, Initial residual = 0.027928913891509, Final residual = 0.00096151052134846, No Iterations 1
time step continuity errors : sum local = 6.5854932565951e-06, global = 1.6012142350859e-07, cumulative = 3.0967385010668e-06
GAMG:  Solving for p_rgh, Initial residual = 0.01224367267207, Final residual = 0.00029549765513061, No Iterations 2
time step continuity errors : sum local = 1.9562045422328e-06, global = 5.2116351774603e-07, cumulative = 3.6179020188129e-06
GAMG:  Solving for p_rgh, Initial residual = 0.0020222880982348, Final residual = 4.3461693308109e-10, No Iterations 15
time step continuity errors : sum local = 2.6810371554445e-12, global = 1.2454404440789e-12, cumulative = 3.6179032642533e-06
ExecutionTime = 0.16 s  ClockTime = 0 s

Courant Number mean: 0.24412182959789 max: 0.52396968783683
Interface Courant Number mean: 4.8153714302001e-05 max: 0.0069191207031821
Capillary Number: 0.43125643821741
Time = 5e-05

PIMPLE: iteration 1

 From BC: theta 78.787496375367 in cell 15
 and normal (0.98091274434151 4.7642605771748e-19 -0.19444841986607)

After: CellID : 15 ThetaD = 90 and uwall -0.0045390976919051

 From BC: theta 77.185714008579 in cell 36
 and normal (-0.97509408362615 -1.0485525978079e-17 -0.22179163211737)

After: CellID : 36 ThetaD = 90 and uwall 0.00042833528277539

 From BC: theta 78.807536393527 in cell 15
 and normal (0.98098069545539 0 -0.19410531972068)

After: CellID : 15 ThetaD = 90 and uwall -0.0045390976919051

 From BC: theta 77.225741299122 in cell 36
 and normal (-0.97524879107557 -1.0487189601115e-17 -0.22111036951179)

After: CellID : 36 ThetaD = 90 and uwall 0.00042833528277539

 From BC: theta 78.785158478225 in cell 15
 and normal (0.98090480925107 -5.8986936477961e-18 -0.19448844487045)

After: CellID : 15 ThetaD = 90 and uwall -0.0045390976919051

 From BC: theta 77.221211659221 in cell 36
 and normal (-0.97523130767665 -1.0487001596043e-17 -0.22118746919139)

After: CellID : 36 ThetaD = 90 and uwall 0.00042833528277539

 From BC: theta 78.806533290711 in cell 15
 and normal (0.98097729701647 4.700771693863e-19 -0.19412249415834)

After: CellID : 15 ThetaD = 90 and uwall -0.0045390976919051

 From BC: theta 77.23880754908 in cell 36
 and normal (-0.97529918973248 -1.048773155541e-17 -0.22088795917198)

After: CellID : 36 ThetaD = 90 and uwall 0.00042833528277539
 Inside Phip> 0
 Inside the first hysteresis 
"0.279938" line 0.27993801236153 line count 15 id 15
Before: Hysteresis: For faceI 5240 with subFaceArea (0 0 0) and alphaf 0.070545361066731 and alphaf0 0.27993801236153
After: Hysteresis: For faceI 5240 with subFaceArea (0 0 -1.575461055984e-09) and alphaf 0.27993801236153 and alphaf0 0.27993801236153
 Inside Phip> 0
 Inside Phip> 0
 Inside the first hysteresis 
"0.279937" line 0.27993699908257 line count 36 id 36
Before: Hysteresis: For faceI 5261 with subFaceArea (0 0 0) and alphaf 0.48850737284175 and alphaf0 0.27993699908257
After: Hysteresis: For faceI 5261 with subFaceArea (0 0 -5.6053822588004e-09) and alphaf 0.27993699908257 and alphaf0 0.27993699908257
isoAdvection: After conservative bounding: min(alpha) = 0, max(alpha) = 1 + 0
Phase-1 volume fraction = 0.11125086666896  Min(alpha.oil) = 0  Max(alpha.oil) = 1.0000128884487

 From BC: theta 90 in cell 15
 and normal (0.99999998025273 0 0)

After: CellID : 15 ThetaD = 90 and uwall -0.0045390976919051

 From BC: theta 90 in cell 36
 and normal (-0.99999998025977 0 0)

After: CellID : 36 ThetaD = 90 and uwall 0.00042833528277539

 From BC: theta 78.784132472997 in cell 15
 and normal (0.98090132635627 4.5880324843668e-19 -0.19450601006783)

After: CellID : 15 ThetaD = 90 and uwall -0.0045390976919051

 From BC: theta 77.234256130773 in cell 36
 and normal (-0.97528163992656 0 -0.22096543354598)

After: CellID : 36 ThetaD = 90 and uwall 0.00042833528277539

 From BC: theta 78.804689544097 in cell 15
 and normal (0.98097104975367 0 -0.19415406136672)

After: CellID : 15 ThetaD = 90 and uwall -0.0045390976919051

 From BC: theta 77.289280422688 in cell 36
 and normal (-0.97549339542444 0 -0.2200287151335)

After: CellID : 36 ThetaD = 90 and uwall 0.00042833528277539

 From BC: theta 79.214852991721 in cell 15
 and normal (0.98233579315228 0 -0.187126666423)

After: CellID : 15 ThetaD = 90 and uwall -0.0045390976919051

 From BC: theta 78.317813068842 in cell 36
 and normal (-0.97928580909284 0 -0.2024828484195)

After: CellID : 36 ThetaD = 90 and uwall 0.00042833528277539
GAMG:  Solving for p_rgh, Initial residual = 0.020881781847345, Final residual = 0.00062029272875453, No Iterations 1
time step continuity errors : sum local = 3.7461101872506e-06, global = -9.6032216803857e-09, cumulative = 3.6083000425729e-06
GAMG:  Solving for p_rgh, Initial residual = 0.009966977542473, Final residual = 0.00021803902631058, No Iterations 2
time step continuity errors : sum local = 1.2836042598884e-06, global = 3.9037150246022e-07, cumulative = 3.9986715450331e-06
GAMG:  Solving for p_rgh, Initial residual = 0.0016265517568915, Final residual = 5.3024244865861e-10, No Iterations 15
time step continuity errors : sum local = 2.9749156975964e-12, global = 1.3842681102732e-12, cumulative = 3.9986729293012e-06
ExecutionTime = 0.19 s  ClockTime = 0 s

Courant Number mean: 0.24433996176306 max: 0.51272851105889
Interface Courant Number mean: 4.5680015441063e-05 max: 0.0065500581104902
Capillary Number: 0.43125643821741
Time = 6e-05

PIMPLE: iteration 1

 From BC: theta 78.778403784569 in cell 15
 and normal (0.98088187387204 -6.396470104986e-18 -0.19460408399946)

After: CellID : 15 ThetaD = 90 and uwall -0.0044311673957558

 From BC: theta 77.284694604651 in cell 36
 and normal (-0.97547578172445 0 -0.22010679060191)

After: CellID : 36 ThetaD = 90 and uwall -1.518212959288e-05

 From BC: theta 78.80252694457 in cell 15
 and normal (0.9809637208104 0 -0.19419108747268)

After: CellID : 15 ThetaD = 90 and uwall -0.0044311673957558

 From BC: theta 77.319177724134 in cell 36
 and normal (-0.97560807499488 0 -0.21951966655582)

After: CellID : 36 ThetaD = 90 and uwall -1.518212959288e-05

 From BC: theta 78.776218954472 in cell 15
 and normal (0.9808744524228 -5.9356226542969e-18 -0.19464148731522)

After: CellID : 15 ThetaD = 90 and uwall -0.0044311673957558

 From BC: theta 77.314551689748 in cell 36
 and normal (-0.97559034789997 0 -0.21959843597898)

After: CellID : 36 ThetaD = 90 and uwall -1.518212959288e-05

 From BC: theta 78.801553311313 in cell 15
 and normal (0.98096042075902 6.3902091629756e-18 -0.19420775706517)

After: CellID : 15 ThetaD = 90 and uwall -0.0044311673957558

 From BC: theta 77.330116017443 in cell 36
 and normal (-0.97564996554708 1.0491503569802e-17 -0.21933340996751)

After: CellID : 36 ThetaD = 90 and uwall -1.518212959288e-05
 Inside Phip> 0
 Inside the first hysteresis 
"0.279938" line 0.27993801236153 line count 15 id 15
Before: Hysteresis: For faceI 5240 with subFaceArea (0 0 0) and alphaf 0.070132393525423 and alphaf0 0.27993801236153
After: Hysteresis: For faceI 5240 with subFaceArea (0 0 -1.5712014207461e-09) and alphaf 0.27993801236153 and alphaf0 0.27993801236153
 Inside Phip> 0
 Inside Phip> 0
 Inside the first hysteresis 
"0.279937" line 0.27993699908257 line count 36 id 36
Before: Hysteresis: For faceI 5261 with subFaceArea (0 0 0) and alphaf 0.48847445000143 and alphaf0 0.27993699908257
After: Hysteresis: For faceI 5261 with subFaceArea (0 0 -5.5970260680628e-09) and alphaf 0.27993699908257 and alphaf0 0.27993699908257
isoAdvection: After conservative bounding: min(alpha) = 0, max(alpha) = 1 + 0
Phase-1 volume fraction = 0.11125086666896  Min(alpha.oil) = 0  Max(alpha.oil) = 1.0000127719427

 From BC: theta 90 in cell 15
 and normal (0.99999998025108 0 0)

After: CellID : 15 ThetaD = 90 and uwall -0.0044311673957558

 From BC: theta 90 in cell 36
 and normal (-0.99999998025977 0 0)

After: CellID : 36 ThetaD = 90 and uwall -1.518212959288e-05

 From BC: theta 78.775225126381 in cell 15
 and normal (0.98087107610723 -6.4157799958532e-18 -0.19465850111476)

After: CellID : 15 ThetaD = 90 and uwall -0.0044311673957558

 From BC: theta 77.325471607692 in cell 36
 and normal (-0.97563218312244 0 -0.21941249566911)

After: CellID : 36 ThetaD = 90 and uwall -1.518212959288e-05

 From BC: theta 78.799709859074 in cell 15
 and normal (0.98095417175048 -6.8443274674549e-18 -0.19423931869047)

After: CellID : 15 ThetaD = 90 and uwall -0.0044311673957558

 From BC: theta 77.374361058904 in cell 36
 and normal (-0.97581904863541 1.0493321779085e-17 -0.21857992661789)

After: CellID : 36 ThetaD = 90 and uwall -1.518212959288e-05

 From BC: theta 79.209736622807 in cell 15
 and normal (0.98231907929534 0 -0.18721438579089)

After: CellID : 15 ThetaD = 90 and uwall -0.0044311673957558

 From BC: theta 78.383365207028 in cell 36
 and normal (-0.97951682887344 0 -0.20136231461828)

After: CellID : 36 ThetaD = 90 and uwall -1.518212959288e-05
GAMG:  Solving for p_rgh, Initial residual = 0.01546644802938, Final residual = 0.00044124599559866, No Iterations 1
time step continuity errors : sum local = 2.4285163109066e-06, global = -1.0363261776225e-07, cumulative = 3.895040311539e-06
GAMG:  Solving for p_rgh, Initial residual = 0.0082334317920582, Final residual = 0.00015556588627831, No Iterations 2
time step continuity errors : sum local = 8.410630710056e-07, global = 2.7523273856644e-07, cumulative = 4.1702730501054e-06
GAMG:  Solving for p_rgh, Initial residual = 0.0013221071232852, Final residual = 4.3109288562903e-10, No Iterations 15
time step continuity errors : sum local = 2.2544799191461e-12, global = 1.049148410989e-12, cumulative = 4.1702740992538e-06
ExecutionTime = 0.21 s  ClockTime = 0 s

Courant Number mean: 0.24453106900418 max: 0.50762675676879
Interface Courant Number mean: 4.4011411885157e-05 max: 0.0063370288314243
Capillary Number: 0.43125643821741
Time = 7e-05

PIMPLE: iteration 1

 From BC: theta 78.769603070061 in cell 15
 and normal (0.98085197083254 0 -0.19475474657609)

After: CellID : 15 ThetaD = 90 and uwall -0.0043295839045003

 From BC: theta 77.369671851137 in cell 36
 and normal (-0.97580115632389 1.0493129376833e-17 -0.2186597889804)

After: CellID : 36 ThetaD = 90 and uwall -0.00033417979502167

 From BC: theta 78.797504389099 in cell 15
 and normal (0.98094669422547 -4.3591969876432e-19 -0.19427707813358)

After: CellID : 15 ThetaD = 90 and uwall -0.0043295839045003

 From BC: theta 77.400259581305 in cell 36
 and normal (-0.97591775023726 1.0494383151754e-17 -0.21813881995612)

After: CellID : 36 ThetaD = 90 and uwall -0.00033417979502167

 From BC: theta 78.767379369345 in cell 15
 and normal (0.98084441148701 -4.4592494942746e-19 -0.19479281417625)

After: CellID : 15 ThetaD = 90 and uwall -0.0043295839045003

 From BC: theta 77.395535328327 in cell 36
 and normal (-0.97589976055192 0 -0.21821928731142)

After: CellID : 36 ThetaD = 90 and uwall -0.00033417979502167

 From BC: theta 78.79648685253 in cell 15
 and normal (0.98094324383355 -4.3625745058107e-19 -0.19429449909176)

After: CellID : 15 ThetaD = 90 and uwall -0.0043295839045003

 From BC: theta 77.409707168407 in cell 36
 and normal (-0.97595370620739 1.1989225018163e-17 -0.21797789644837)

After: CellID : 36 ThetaD = 90 and uwall -0.00033417979502167
 Inside Phip> 0
 Inside the first hysteresis 
"0.279938" line 0.27993801236153 line count 15 id 15
Before: Hysteresis: For faceI 5240 with subFaceArea (0 0 0) and alphaf 0.069729592582033 and alphaf0 0.27993801236153
After: Hysteresis: For faceI 5240 with subFaceArea (0 0 -1.5670464323664e-09) and alphaf 0.27993801236153 and alphaf0 0.27993801236153
 Inside Phip> 0
 Inside Phip> 0
 Inside the first hysteresis 
"0.279937" line 0.27993699908257 line count 36 id 36
Before: Hysteresis: For faceI 5261 with subFaceArea (0 0 0) and alphaf 0.48839665613801 and alphaf0 0.27993699908257
After: Hysteresis: For faceI 5261 with subFaceArea (0 0 -5.5892929869724e-09) and alphaf 0.27993699908257 and alphaf0 0.27993699908257
isoAdvection: After conservative bounding: min(alpha) = 0, max(alpha) = 1 + 0
Phase-1 volume fraction = 0.11125086666896  Min(alpha.oil) = 0  Max(alpha.oil) = 1.0000126703297

 From BC: theta 90 in cell 15
 and normal (0.99999998024945 0 0)

After: CellID : 15 ThetaD = 90 and uwall -0.0043295839045003

 From BC: theta 90 in cell 36
 and normal (-0.99999998025977 0 0)

After: CellID : 36 ThetaD = 90 and uwall -0.00033417979502167

 From BC: theta 78.766342739278 in cell 15
 and normal (0.98084088701649 4.2804110761073e-19 -0.1948105601776)

After: CellID : 15 ThetaD = 90 and uwall -0.0043295839045003

 From BC: theta 77.404966925195 in cell 36
 and normal (-0.97593566893443 0 -0.21805863913522)

After: CellID : 36 ThetaD = 90 and uwall -0.00033417979502167

 From BC: theta 78.794589053057 in cell 15
 and normal (0.98093680770802 -4.1868082705278e-19 -0.19432699062046)

After: CellID : 15 ThetaD = 90 and uwall -0.0043295839045003

 From BC: theta 77.449700651774 in cell 36
 and normal (-0.97610562092603 0 -0.21729661018205)

After: CellID : 36 ThetaD = 90 and uwall -0.00033417979502167

 From BC: theta 79.204594697841 in cell 15
 and normal (0.98230227406153 0 -0.18730254180935)

After: CellID : 15 ThetaD = 90 and uwall -0.0043295839045003

 From BC: theta 78.443852091172 in cell 36
 and normal (-0.97972886024756 0 -0.2003281313064)

After: CellID : 36 ThetaD = 90 and uwall -0.00033417979502167
GAMG:  Solving for p_rgh, Initial residual = 0.012474069397293, Final residual = 0.00036899009176317, No Iterations 1
time step continuity errors : sum local = 1.8966461382057e-06, global = -1.2079046671843e-07, cumulative = 4.0494836325354e-06
GAMG:  Solving for p_rgh, Initial residual = 0.0068576391285688, Final residual = 0.00012483938544154, No Iterations 2
time step continuity errors : sum local = 6.3310777733171e-07, global = 1.9274064465273e-07, cumulative = 4.2422242771881e-06
GAMG:  Solving for p_rgh, Initial residual = 0.0011181679179831, Final residual = 9.6189346621461e-10, No Iterations 14
time step continuity errors : sum local = 4.7490682109979e-12, global = -8.8888545876212e-13, cumulative = 4.2422233883027e-06
ExecutionTime = 0.24 s  ClockTime = 0 s

Courant Number mean: 0.24470251377208 max: 0.50650742649933
Interface Courant Number mean: 4.2822700805202e-05 max: 0.0061613457173608
Capillary Number: 0.43125643821741
Time = 8e-05

PIMPLE: iteration 1

 From BC: theta 78.760750086838 in cell 15
 and normal (0.98082186684637 -6.4379339141686e-18 -0.19490629932357)

After: CellID : 15 ThetaD = 90 and uwall -0.0042644986141035

 From BC: theta 77.444907440138 in cell 36
 and normal (-0.9760874390573 0 -0.21737826780654)

After: CellID : 36 ThetaD = 90 and uwall -0.00057882420599751

 From BC: theta 78.792293706504 in cell 15
 and normal (0.98092902191834 0 -0.19436628812201)

After: CellID : 15 ThetaD = 90 and uwall -0.0042644986141035

 From BC: theta 77.472909347516 in cell 36
 and normal (-0.97619356078096 0 -0.21690120306211)

After: CellID : 36 ThetaD = 90 and uwall -0.00057882420599751

 From BC: theta 78.758438756198 in cell 15
 and normal (0.98081400346391 4.3066223540966e-19 -0.19494586584251)

After: CellID : 15 ThetaD = 90 and uwall -0.0042644986141035

 From BC: theta 77.46808451538 in cell 36
 and normal (-0.97617529224157 -1.0497152590542e-17 -0.21698340677823)

After: CellID : 36 ThetaD = 90 and uwall -0.00057882420599751

 From BC: theta 78.791210237977 in cell 15
 and normal (0.98092534625834 0 -0.19438483754643)

After: CellID : 15 ThetaD = 90 and uwall -0.0042644986141035

 From BC: theta 77.48135436805 in cell 36
 and normal (-0.97622551998579 0 -0.21675731620518)

After: CellID : 36 ThetaD = 90 and uwall -0.00057882420599751
 Inside Phip> 0
 Inside the first hysteresis 
"0.279938" line 0.27993801236153 line count 15 id 15
Before: Hysteresis: For faceI 5240 with subFaceArea (0 0 0) and alphaf 0.069335194363018 and alphaf0 0.27993801236153
After: Hysteresis: For faceI 5240 with subFaceArea (0 0 -1.5629859435849e-09) and alphaf 0.27993801236153 and alphaf0 0.27993801236153
 Inside Phip> 0
 Inside Phip> 0
 Inside the first hysteresis 
"0.279937" line 0.27993699908257 line count 36 id 36
Before: Hysteresis: For faceI 5261 with subFaceArea (0 0 0) and alphaf 0.48828487938055 and alphaf0 0.27993699908257
After: Hysteresis: For faceI 5261 with subFaceArea (0 0 -5.5819494839932e-09) and alphaf 0.27993699908257 and alphaf0 0.27993699908257
isoAdvection: After conservative bounding: min(alpha) = 0, max(alpha) = 1 + 0
Phase-1 volume fraction = 0.11125086666896  Min(alpha.oil) = 0  Max(alpha.oil) = 1.0000125786345

 From BC: theta 90 in cell 15
 and normal (0.99999998024782 0 0)

After: CellID : 15 ThetaD = 90 and uwall -0.0042644986141035

 From BC: theta 90 in cell 36
 and normal (-0.99999998025977 0 0)

After: CellID : 36 ThetaD = 90 and uwall -0.00057882420599751

 From BC: theta 78.757336792148 in cell 15
 and normal (0.98081025390799 6.8698884638872e-18 -0.19496472970501)

After: CellID : 15 ThetaD = 90 and uwall -0.0042644986141035

 From BC: theta 77.47651511799 in cell 36
 and normal (-0.9762072089973 0 -0.21683976826611)

After: CellID : 36 ThetaD = 90 and uwall -0.00057882420599751

 From BC: theta 78.789258395251 in cell 15
 and normal (0.98091872375934 4.0234684817969e-19 -0.19441825371696)

After: CellID : 15 ThetaD = 90 and uwall -0.0042644986141035

 From BC: theta 77.518144110563 in cell 36
 and normal (-0.97636449906583 0 -0.21613043507089)

After: CellID : 36 ThetaD = 90 and uwall -0.00057882420599751

 From BC: theta 79.199392716779 in cell 15
 and normal (0.98228526449728 0 -0.18739172592784)

After: CellID : 15 ThetaD = 90 and uwall -0.0042644986141035

 From BC: theta 78.500588767923 in cell 36
 and normal (-0.97992675315703 0 -0.19935786476039)

After: CellID : 36 ThetaD = 90 and uwall -0.00057882420599751
GAMG:  Solving for p_rgh, Initial residual = 0.010442152523603, Final residual = 0.00032891338147137, No Iterations 1
time step continuity errors : sum local = 1.5998930854122e-06, global = -1.4399077353434e-07, cumulative = 4.0982326147683e-06
GAMG:  Solving for p_rgh, Initial residual = 0.0058171747342174, Final residual = 0.00010141690959692, No Iterations 2
time step continuity errors : sum local = 4.8951267355035e-07, global = 1.3989621297614e-07, cumulative = 4.2381288277445e-06
GAMG:  Solving for p_rgh, Initial residual = 0.00095233039929807, Final residual = 8.2009194664021e-10, No Iterations 14
time step continuity errors : sum local = 3.8730044580176e-12, global = -7.2435594609534e-13, cumulative = 4.2381281033885e-06
ExecutionTime = 0.26 s  ClockTime = 0 s

Courant Number mean: 0.24486046541378 max: 0.50466992576119
Interface Courant Number mean: 4.2119987892786e-05 max: 0.0060501033426447
Capillary Number: 0.43125643821741
Time = 9e-05

PIMPLE: iteration 1

 From BC: theta 78.751755610645 in cell 15
 and normal (0.98079125774168 0 -0.1950602695002)

After: CellID : 15 ThetaD = 90 and uwall -0.0042252946482276

 From BC: theta 77.513161742263 in cell 36
 and normal (-0.97634570094586 0 -0.21621533767182)

After: CellID : 36 ThetaD = 90 and uwall -0.0012999781067682

 From BC: theta 78.786885734162 in cell 15
 and normal (0.98091067191296 6.4489328028816e-18 -0.19445887412836)

After: CellID : 15 ThetaD = 90 and uwall -0.0042252946482276

 From BC: theta 77.539220917923 in cell 36
 and normal (-0.97644393867645 -1.0500041439135e-17 -0.2157712553192)

After: CellID : 36 ThetaD = 90 and uwall -0.0012999781067682

 From BC: theta 78.749369436568 in cell 15
 and normal (0.98078313329524 0 -0.19510111594651)

After: CellID : 15 ThetaD = 90 and uwall -0.0042252946482276

 From BC: theta 77.534208984965 in cell 36
 and normal (-0.97642506040795 1.0499838434545e-17 -0.21585666866541)

After: CellID : 36 ThetaD = 90 and uwall -0.0012999781067682

 From BC: theta 78.785746026099 in cell 15
 and normal (0.98090680360943 6.8527513806339e-18 -0.19447838602971)

After: CellID : 15 ThetaD = 90 and uwall -0.0042252946482276

 From BC: theta 77.546869944524 in cell 36
 and normal (-0.97647273558842 0 -0.21564089744867)

After: CellID : 36 ThetaD = 90 and uwall -0.0012999781067682
 Inside Phip> 0
 Inside the first hysteresis 
"0.279938" line 0.27993801236153 line count 15 id 15
Before: Hysteresis: For faceI 5240 with subFaceArea (0 0 0) and alphaf 0.068946507822985 and alphaf0 0.27993801236153
After: Hysteresis: For faceI 5240 with subFaceArea (0 0 -1.5589885416929e-09) and alphaf 0.27993801236153 and alphaf0 0.27993801236153
 Inside Phip> 0
 Inside Phip> 0
 Inside the first hysteresis 
"0.279937" line 0.27993699908257 line count 36 id 36
Before: Hysteresis: For faceI 5261 with subFaceArea (0 0 0) and alphaf 0.48814677658053 and alphaf0 0.27993699908257
After: Hysteresis: For faceI 5261 with subFaceArea (0 0 -5.574905668881e-09) and alphaf 0.27993699908257 and alphaf0 0.27993699908257
isoAdvection: After conservative bounding: min(alpha) = 0, max(alpha) = 1 + 0
Phase-1 volume fraction = 0.11125086666896  Min(alpha.oil) = 0  Max(alpha.oil) = 1.0000124945101

 From BC: theta 90 in cell 15
 and normal (0.99999998024618 0 0)

After: CellID : 15 ThetaD = 90 and uwall -0.0042252946482276

 From BC: theta 90 in cell 36
 and normal (-0.99999998025977 0 0)

After: CellID : 36 ThetaD = 90 and uwall -0.0012999781067682

 From BC: theta 78.748212162252 in cell 15
 and normal (0.98077919239461 6.4775759298861e-18 -0.19512092600685)

After: CellID : 15 ThetaD = 90 and uwall -0.0042252946482276

 From BC: theta 77.541844560447 in cell 36
 and normal (-0.97645381807753 0 -0.21572654255287)

After: CellID : 36 ThetaD = 90 and uwall -0.0012999781067682

 From BC: theta 78.783743257941 in cell 15
 and normal (0.98090000503793 -6.4678700602773e-18 -0.19451267340865)

After: CellID : 15 ThetaD = 90 and uwall -0.0042252946482276

 From BC: theta 77.587715652445 in cell 36
 and normal (-0.97662621613605 0 -0.21494472302379)

After: CellID : 36 ThetaD = 90 and uwall -0.0012999781067682

 From BC: theta 79.194130975811 in cell 15
 and normal (0.98226805129146 0 -0.18748193301431)

After: CellID : 15 ThetaD = 90 and uwall -0.0042252946482276

 From BC: theta 78.561664328233 in cell 36
 and normal (-0.9801387058031 0 -0.19831317954522)

After: CellID : 36 ThetaD = 90 and uwall -0.0012999781067682
GAMG:  Solving for p_rgh, Initial residual = 0.0087166845889043, Final residual = 0.00030571445334605, No Iterations 1
time step continuity errors : sum local = 1.4245569162349e-06, global = -1.597165820549e-07, cumulative = 4.0784115213336e-06
GAMG:  Solving for p_rgh, Initial residual = 0.004996239636217, Final residual = 0.00024208040324793, No Iterations 1
time step continuity errors : sum local = 1.1202314978905e-06, global = 2.3989617263974e-07, cumulative = 4.3183076939734e-06
GAMG:  Solving for p_rgh, Initial residual = 0.00096613768100153, Final residual = 5.0828964784456e-10, No Iterations 15
time step continuity errors : sum local = 2.3389212100227e-12, global = 1.0913042792679e-12, cumulative = 4.3183087852777e-06
ExecutionTime = 0.29 s  ClockTime = 0 s

Courant Number mean: 0.24500697247313 max: 0.50233907394445
Interface Courant Number mean: 4.1484013815319e-05 max: 0.0059681294658543
Capillary Number: 0.43125643821741
Time = 0.0001

PIMPLE: iteration 1

 From BC: theta 78.742630909629 in cell 15
 and normal (0.98076018077105 -4.2644878152171e-18 -0.19521646399301)

After: CellID : 15 ThetaD = 90 and uwall -0.0042057104391234

 From BC: theta 77.582559533275 in cell 36
 and normal (-0.97660686903589 0 -0.21503260997329)

After: CellID : 36 ThetaD = 90 and uwall -0.0016985529090324

 From BC: theta 78.781303208711 in cell 15
 and normal (0.98089172045803 6.4685372225084e-18 -0.19455444671579)

After: CellID : 15 ThetaD = 90 and uwall -0.0042057104391234

 From BC: theta 77.611622939449 in cell 36
 and normal (-0.97671581913777 0 -0.21453719641599)

After: CellID : 36 ThetaD = 90 and uwall -0.0016985529090324

 From BC: theta 78.740180292523 in cell 15
 and normal (0.98075183020475 0 -0.19525841223884)

After: CellID : 15 ThetaD = 90 and uwall -0.0042057104391234

 From BC: theta 77.606432469892 in cell 36
 and normal (-0.97669638003728 0 -0.21462567698687)

After: CellID : 36 ThetaD = 90 and uwall -0.0016985529090324

 From BC: theta 78.780116075678 in cell 15
 and normal (0.98088768919996 0 -0.19457477014241)

After: CellID : 15 ThetaD = 90 and uwall -0.0042057104391234

 From BC: theta 77.620322778636 in cell 36
 and normal (-0.97674838338597 0 -0.21438888859476)

After: CellID : 36 ThetaD = 90 and uwall -0.0016985529090324
 Inside Phip> 0
 Inside the first hysteresis 
"0.279938" line 0.27993801236153 line count 15 id 15
Before: Hysteresis: For faceI 5240 with subFaceArea (0 0 0) and alphaf 0.068561580054459 and alphaf0 0.27993801236153
After: Hysteresis: For faceI 5240 with subFaceArea (0 0 -1.5550308839328e-09) and alphaf 0.27993801236153 and alphaf0 0.27993801236153
 Inside Phip> 0
 Inside Phip> 0
 Inside the first hysteresis 
"0.279937" line 0.27993699908257 line count 36 id 36
Before: Hysteresis: For faceI 5261 with subFaceArea (0 0 0) and alphaf 0.4878911672325 and alphaf0 0.27993699908257
After: Hysteresis: For faceI 5261 with subFaceArea (0 0 -5.5660802278849e-09) and alphaf 0.27993699908257 and alphaf0 0.27993699908257
isoAdvection: After conservative bounding: min(alpha) = 0, max(alpha) = 1 + 0
Phase-1 volume fraction = 0.11125086666896  Min(alpha.oil) = 0  Max(alpha.oil) = 1.0000123983224

 From BC: theta 90 in cell 15
 and normal (0.99999998024453 0 0)

After: CellID : 15 ThetaD = 90 and uwall -0.0042057104391234

 From BC: theta 90 in cell 36
 and normal (-0.99999998025977 0 0)

After: CellID : 36 ThetaD = 90 and uwall -0.0016985529090324

 From BC: theta 78.73897691979 in cell 15
 and normal (0.98074772901187 0 -0.19527901074633)

After: CellID : 15 ThetaD = 90 and uwall -0.0042057104391234

 From BC: theta 77.615116609103 in cell 36
 and normal (-0.97672889895034 1.0503105716116e-17 -0.21447763975587)

After: CellID : 36 ThetaD = 90 and uwall -0.0016985529090324

 From BC: theta 78.778067819494 in cell 15
 and normal (0.98088073275585 6.4875527043411e-18 -0.19460983558996)

After: CellID : 15 ThetaD = 90 and uwall -0.0042057104391234

 From BC: theta 77.661459572512 in cell 36
 and normal (-0.97690205694907 1.0504967744329e-17 -0.21368755492231)

After: CellID : 36 ThetaD = 90 and uwall -0.0016985529090324

 From BC: theta 79.18880920737 in cell 15
 and normal (0.98225063328601 0 -0.18757316760118)

After: CellID : 15 ThetaD = 90 and uwall -0.0042057104391234

 From BC: theta 78.626117276798 in cell 36
 and normal (-0.98036117130597 0 -0.19721048042712)

After: CellID : 36 ThetaD = 90 and uwall -0.0016985529090324
GAMG:  Solving for p_rgh, Initial residual = 0.0076866661114866, Final residual = 0.00029305556468428, No Iterations 1
time step continuity errors : sum local = 1.3100560444364e-06, global = -2.3101588998611e-07, cumulative = 4.0872928952916e-06
GAMG:  Solving for p_rgh, Initial residual = 0.0043300940589376, Final residual = 0.00018728514642173, No Iterations 1
time step continuity errors : sum local = 8.3149533295549e-07, global = 1.4120149816855e-07, cumulative = 4.2284943934601e-06
GAMG:  Solving for p_rgh, Initial residual = 0.00084716418488465, Final residual = 4.4690199459168e-10, No Iterations 15
time step continuity errors : sum local = 1.9762647741399e-12, global = 9.2222202705413e-13, cumulative = 4.2284953156821e-06
ExecutionTime = 0.31 s  ClockTime = 0 s

Courant Number mean: 0.24514407204537 max: 0.49972708882166
Interface Courant Number mean: 4.0894140626961e-05 max: 0.0059161286880807
Capillary Number: 0.43125643821741
Time = 0.00011

PIMPLE: iteration 1

 From BC: theta 78.73338800037 in cell 15
 and normal (0.98072867584598 0 -0.19537467689899)

After: CellID : 15 ThetaD = 90 and uwall -0.0042001426721482

 From BC: theta 77.656146088103 in cell 36
 and normal (-0.97688223583503 0 -0.21377814974862)

After: CellID : 36 ThetaD = 90 and uwall -0.0018406845589438

 From BC: theta 78.775569723108 in cell 15
 and normal (0.98087224683336 6.4882374307559e-18 -0.19465260181175)

After: CellID : 15 ThetaD = 90 and uwall -0.0042001426721482

 From BC: theta 77.685514661649 in cell 36
 and normal (-0.97699168554056 -1.0505931551761e-17 -0.21327739304626)

After: CellID : 36 ThetaD = 90 and uwall -0.0018406845589438

 From BC: theta 78.730882703669 in cell 15
 and normal (0.98072013201859 6.1150948806249e-18 -0.19541755973669)

After: CellID : 15 ThetaD = 90 and uwall -0.0042001426721482

 From BC: theta 77.680165934679 in cell 36
 and normal (-0.97697177122108 0 -0.21336859712042)

After: CellID : 36 ThetaD = 90 and uwall -0.0018406845589438

 From BC: theta 78.774342728257 in cell 15
 and normal (0.98086807810349 0 -0.19467360724443)

After: CellID : 15 ThetaD = 90 and uwall -0.0042001426721482

 From BC: theta 77.694255126355 in cell 36
 and normal (-0.97702420961469 0 -0.21312835059371)

After: CellID : 36 ThetaD = 90 and uwall -0.0018406845589438
 Inside Phip> 0
 Inside the first hysteresis 
"0.279938" line 0.27993801236153 line count 15 id 15
Before: Hysteresis: For faceI 5240 with subFaceArea (0 0 0) and alphaf 0.068178892491804 and alphaf0 0.27993801236153
After: Hysteresis: For faceI 5240 with subFaceArea (0 0 -1.5510942850704e-09) and alphaf 0.27993801236153 and alphaf0 0.27993801236153
 Inside Phip> 0
 Inside Phip> 0
 Inside the first hysteresis 
"0.279937" line 0.27993699908257 line count 36 id 36
Before: Hysteresis: For faceI 5261 with subFaceArea (0 0 0) and alphaf 0.48758206875365 and alphaf0 0.27993699908257
After: Hysteresis: For faceI 5261 with subFaceArea (0 0 -5.5567217348185e-09) and alphaf 0.27993699908257 and alphaf0 0.27993699908257
isoAdvection: After conservative bounding: min(alpha) = 0, max(alpha) = 1 + 0
Phase-1 volume fraction = 0.11125086666896  Min(alpha.oil) = 0  Max(alpha.oil) = 1.0000123034191

 From BC: theta 90 in cell 15
 and normal (0.99999998024286 0 0)

After: CellID : 15 ThetaD = 90 and uwall -0.0042001426721482

 From BC: theta 90 in cell 36
 and normal (-0.99999998025977 0 0)

After: CellID : 36 ThetaD = 90 and uwall -0.0018406845589438

 From BC: theta 78.729641098872 in cell 15
 and normal (0.98071589707188 0 -0.19543881198602)

After: CellID : 15 ThetaD = 90 and uwall -0.0042001426721482

 From BC: theta 77.688890328042 in cell 36
 and normal (-0.97700424940095 1.0506066655323e-17 -0.21321983175232)

After: CellID : 36 ThetaD = 90 and uwall -0.0018406845589438

 From BC: theta 78.772251249177 in cell 15
 and normal (0.98086097124113 2.2092195654833e-19 -0.19470941193459)

After: CellID : 15 ThetaD = 90 and uwall -0.0042001426721482

 From BC: theta 77.732367924121 in cell 36
 and normal (-0.97716576510519 0 -0.21247839303417)

After: CellID : 36 ThetaD = 90 and uwall -0.0018406845589438

 From BC: theta 79.183425288254 in cell 15
 and normal (0.98223300324003 0 -0.18766546603138)

After: CellID : 15 ThetaD = 90 and uwall -0.0042001426721482

 From BC: theta 78.688909262164 in cell 36
 and normal (-0.98057671079677 0 -0.19613595804363)

After: CellID : 36 ThetaD = 90 and uwall -0.0018406845589438
GAMG:  Solving for p_rgh, Initial residual = 0.0067070241017544, Final residual = 0.00028167219163746, No Iterations 1
time step continuity errors : sum local = 1.2168998809603e-06, global = -2.2687263696992e-07, cumulative = 4.0016226787122e-06
GAMG:  Solving for p_rgh, Initial residual = 0.0037772304923123, Final residual = 0.00017068291961338, No Iterations 1
time step continuity errors : sum local = 7.3459425530443e-07, global = 1.4062827361282e-07, cumulative = 4.142250952325e-06
GAMG:  Solving for p_rgh, Initial residual = 0.00076252635387422, Final residual = 3.9849594080135e-10, No Iterations 15
time step continuity errors : sum local = 1.7100491658512e-12, global = 7.9826033846987e-13, cumulative = 4.1422517505854e-06
ExecutionTime = 0.34 s  ClockTime = 0 s

Courant Number mean: 0.24527312765653 max: 0.49843990803354
Interface Courant Number mean: 4.043874976423e-05 max: 0.0058821880762444
Capillary Number: 0.43125643821741
Time = 0.00012

PIMPLE: iteration 1

 From BC: theta 78.724036557744 in cell 15
 and normal (0.98069677500577 0 -0.19553474242009)

After: CellID : 15 ThetaD = 90 and uwall -0.0042038432464113

 From BC: theta 77.726887961849 in cell 36
 and normal (-0.97714543848319 1.0507584910653e-17 -0.2125718515032)

After: CellID : 36 ThetaD = 90 and uwall -0.0019513723428998

 From BC: theta 78.769700746309 in cell 15
 and normal (0.98085230284358 3.5434824124779e-19 -0.1947530744467)

After: CellID : 15 ThetaD = 90 and uwall -0.0042038432464113

 From BC: theta 77.754329988562 in cell 36
 and normal (-0.9772471384813 0 -0.21210381969714)

After: CellID : 36 ThetaD = 90 and uwall -0.0019513723428998

 From BC: theta 78.721482590201 in cell 15
 and normal (0.98068805804244 0 -0.19557845692442)

After: CellID : 15 ThetaD = 90 and uwall -0.0042038432464113

 From BC: theta 77.748817181911 in cell 36
 and normal (-0.9772267260437 0 -0.21219784613871)

After: CellID : 36 ThetaD = 90 and uwall -0.0019513723428998

 From BC: theta 78.768439063166 in cell 15
 and normal (0.98084801404084 -3.5476266414753e-19 -0.1947746732821)

After: CellID : 15 ThetaD = 90 and uwall -0.0042038432464113

 From BC: theta 77.762277182152 in cell 36
 and normal (-0.97727654887608 0 -0.21196826889151)

After: CellID : 36 ThetaD = 90 and uwall -0.0019513723428998
 Inside Phip> 0
 Inside the first hysteresis 
"0.279938" line 0.27993801236153 line count 15 id 15
Before: Hysteresis: For faceI 5240 with subFaceArea (0 0 0) and alphaf 0.067797335734363 and alphaf0 0.27993801236153
After: Hysteresis: For faceI 5240 with subFaceArea (0 0 -1.5471651928442e-09) and alphaf 0.27993801236153 and alphaf0 0.27993801236153
 Inside Phip> 0
 Inside Phip> 0
 Inside the first hysteresis 
"0.279937" line 0.27993699908257 line count 36 id 36
Before: Hysteresis: For faceI 5261 with subFaceArea (0 0 0) and alphaf 0.48726341009742 and alphaf0 0.27993699908257
After: Hysteresis: For faceI 5261 with subFaceArea (0 0 -5.5477977632884e-09) and alphaf 0.27993699908257 and alphaf0 0.27993699908257
isoAdvection: After conservative bounding: min(alpha) = 0, max(alpha) = 1 + 0
Phase-1 volume fraction = 0.11125086666896  Min(alpha.oil) = 0  Max(alpha.oil) = 1.0000122173356

 From BC: theta 90 in cell 15
 and normal (0.99999998024116 0 0)

After: CellID : 15 ThetaD = 90 and uwall -0.0042038432464113

 From BC: theta 90 in cell 36
 and normal (-0.99999998025977 0 0)

After: CellID : 36 ThetaD = 90 and uwall -0.0019513723428998

 From BC: theta 78.720208173899 in cell 15
 and normal (0.98068370759507 6.8922827273826e-18 -0.19560027008566)

After: CellID : 15 ThetaD = 90 and uwall -0.0042038432464113

 From BC: theta 77.756749484833 in cell 36
 and normal (-0.97725609436743 1.4964495360597e-18 -0.21206255214372)

After: CellID : 36 ThetaD = 90 and uwall -0.0019513723428998

 From BC: theta 78.766305631458 in cell 15
 and normal (0.98084076084651 0 -0.19481119542274)

After: CellID : 15 ThetaD = 90 and uwall -0.0042038432464113

 From BC: theta 77.798285776302 in cell 36
 and normal (-0.97740957125425 0 -0.21135403951803)

After: CellID : 36 ThetaD = 90 and uwall -0.0019513723428998

 From BC: theta 79.177975798663 in cell 15
 and normal (0.9822151496466 0 -0.187758886872)

After: CellID : 15 ThetaD = 90 and uwall -0.0042038432464113

 From BC: theta 78.74887658875 in cell 36
 and normal (-0.98078145493017 0 -0.19510955245646)

After: CellID : 36 ThetaD = 90 and uwall -0.0019513723428998
GAMG:  Solving for p_rgh, Initial residual = 0.0060448346367113, Final residual = 0.00027739981400707, No Iterations 1
time step continuity errors : sum local = 1.1645405533645e-06, global = -2.4294954962664e-07, cumulative = 3.8993022009587e-06
GAMG:  Solving for p_rgh, Initial residual = 0.003334335504537, Final residual = 0.00015619042206803, No Iterations 1
time step continuity errors : sum local = 6.5417545904834e-07, global = 1.1537195411422e-07, cumulative = 4.0146741550729e-06
GAMG:  Solving for p_rgh, Initial residual = 0.00069642335352012, Final residual = 9.6313024415299e-10, No Iterations 14
time step continuity errors : sum local = 4.0233525546454e-12, global = -7.5692619118205e-13, cumulative = 4.0146733981467e-06
ExecutionTime = 0.36 s  ClockTime = 0 s

Courant Number mean: 0.24539562035035 max: 0.49678664708822
Interface Courant Number mean: 4.0093799081861e-05 max: 0.0058632655027965
Capillary Number: 0.43125643821741
Time = 0.00013

PIMPLE: iteration 1

 From BC: theta 78.714582053198 in cell 15
 and normal (0.98066449602963 3.5405896976717e-19 -0.19569656672245)

After: CellID : 15 ThetaD = 90 and uwall -0.0042138577821628

 From BC: theta 77.792638491315 in cell 36
 and normal (-0.97738873466691 1.0510201159175e-17 -0.21145037561144)

After: CellID : 36 ThetaD = 90 and uwall -0.0020279344882073

 From BC: theta 78.763707036906 in cell 15
 and normal (0.98083192436476 6.5281046887106e-18 -0.19485568030449)

After: CellID : 15 ThetaD = 90 and uwall -0.0042138577821628

 From BC: theta 77.818965495008 in cell 36
 and normal (-0.97748579142921 1.0511244844312e-17 -0.21100125012426)

After: CellID : 36 ThetaD = 90 and uwall -0.0020279344882073

 From BC: theta 78.711984010173 in cell 15
 and normal (0.9806556212771 6.5423304896398e-18 -0.19574103416922)

After: CellID : 15 ThetaD = 90 and uwall -0.0042138577821628

 From BC: theta 77.813286744141 in cell 36
 and normal (-0.97746487368234 0 -0.21109813053927)

After: CellID : 36 ThetaD = 90 and uwall -0.0020279344882073

 From BC: theta 78.762414560431 in cell 15
 and normal (0.98082752856662 6.5284606763602e-18 -0.19487780583202)

After: CellID : 15 ThetaD = 90 and uwall -0.0042138577821628

 From BC: theta 77.826430990144 in cell 36
 and normal (-0.97751327606068 0 -0.21087388440752)

After: CellID : 36 ThetaD = 90 and uwall -0.0020279344882073
 Inside Phip> 0
 Inside the first hysteresis 
"0.279938" line 0.27993801236153 line count 15 id 15
Before: Hysteresis: For faceI 5240 with subFaceArea (0 0 0) and alphaf 0.067416188210172 and alphaf0 0.27993801236153
After: Hysteresis: For faceI 5240 with subFaceArea (0 0 -1.5432346037638e-09) and alphaf 0.27993801236153 and alphaf0 0.27993801236153
 Inside Phip> 0
 Inside Phip> 0
 Inside the first hysteresis 
"0.279937" line 0.27993699908257 line count 36 id 36
Before: Hysteresis: For faceI 5261 with subFaceArea (0 0 0) and alphaf 0.48693324276956 and alphaf0 0.27993699908257
After: Hysteresis: For faceI 5261 with subFaceArea (0 0 -5.5391101506477e-09) and alphaf 0.27993699908257 and alphaf0 0.27993699908257
isoAdvection: After conservative bounding: min(alpha) = 0, max(alpha) = 1 + 0
Phase-1 volume fraction = 0.11125086666897  Min(alpha.oil) = 0  Max(alpha.oil) = 1.0000121357648

 From BC: theta 90 in cell 15
 and normal (0.99999998023945 0 0)

After: CellID : 15 ThetaD = 90 and uwall -0.0042138577821628

 From BC: theta 90 in cell 36
 and normal (-0.99999998025977 0 0)

After: CellID : 36 ThetaD = 90 and uwall -0.0020279344882073

 From BC: theta 78.710680865176 in cell 15
 and normal (0.98065116905593 6.5612661586995e-18 -0.19576333831756)

After: CellID : 15 ThetaD = 90 and uwall -0.0042138577821628

 From BC: theta 77.820737993363 in cell 36
 and normal (-0.97749231848185 1.051131503198e-17 -0.21097101058906)

After: CellID : 36 ThetaD = 90 and uwall -0.0020279344882073

 From BC: theta 78.760239339532 in cell 15
 and normal (0.98082012936935 6.5475988335063e-18 -0.19491504257982)

After: CellID : 15 ThetaD = 90 and uwall -0.0042138577821628

 From BC: theta 77.86113692212 in cell 36
 and normal (-0.97764082994695 1.0512912027441e-17 -0.21028173392055)

After: CellID : 36 ThetaD = 90 and uwall -0.0020279344882073

 From BC: theta 79.172457109896 in cell 15
 and normal (0.98219706028786 0 -0.18785349226613)

After: CellID : 15 ThetaD = 90 and uwall -0.0042138577821628

 From BC: theta 78.807094193472 in cell 36
 and normal (-0.98097919724639 0 -0.19411289077372)

After: CellID : 36 ThetaD = 90 and uwall -0.0020279344882073
GAMG:  Solving for p_rgh, Initial residual = 0.0055233803260947, Final residual = 0.00026973811920756, No Iterations 1
time step continuity errors : sum local = 1.1043576393208e-06, global = -2.5315923589852e-07, cumulative = 3.7615141622482e-06
GAMG:  Solving for p_rgh, Initial residual = 0.0029670095637262, Final residual = 3.9506711479588e-05, No Iterations 2
time step continuity errors : sum local = 1.6137176193848e-07, global = 3.839639862751e-08, cumulative = 3.7999105608757e-06
GAMG:  Solving for p_rgh, Initial residual = 0.00053846167094933, Final residual = 4.8937025559461e-10, No Iterations 14
time step continuity errors : sum local = 1.9829211593283e-12, global = -3.7095154110279e-13, cumulative = 3.7999101899242e-06
ExecutionTime = 0.39 s  ClockTime = 0 s

Courant Number mean: 0.24551248423046 max: 0.49485620848577
Interface Courant Number mean: 3.982655117051e-05 max: 0.0058592377401142
Capillary Number: 0.43125643821741
Time = 0.00014

PIMPLE: iteration 1

 From BC: theta 78.705028469782 in cell 15
 and normal (0.98063185166087 6.5628225553599e-18 -0.19586008145655)

After: CellID : 15 ThetaD = 90 and uwall -0.0042333197363434

 From BC: theta 77.855323910708 in cell 36
 and normal (-0.97761949053213 1.0512682557288e-17 -0.21038092055053)

After: CellID : 36 ThetaD = 90 and uwall -0.0020824017256152

 From BC: theta 78.757595661172 in cell 15
 and normal (0.9808111347714 3.2140343608958e-19 -0.19496029828773)

After: CellID : 15 ThetaD = 90 and uwall -0.0042333197363434

 From BC: theta 77.881078938673 in cell 36
 and normal (-0.97771396009578 0 -0.20994144953733)

After: CellID : 36 ThetaD = 90 and uwall -0.0020824017256152

 From BC: theta 78.702389573762 in cell 15
 and normal (0.98062282980993 6.9030290547777e-18 -0.19590524662594)

After: CellID : 15 ThetaD = 90 and uwall -0.0042333197363434

 From BC: theta 77.875235042045 in cell 36
 and normal (-0.97769254198225 0 -0.21004117061252)

After: CellID : 36 ThetaD = 90 and uwall -0.0020824017256152

 From BC: theta 78.756275223209 in cell 15
 and normal (0.98080664145785 0 -0.19498290199958)

After: CellID : 15 ThetaD = 90 and uwall -0.0042333197363434

 From BC: theta 77.888267518102 in cell 36
 and normal (-0.97774029257417 -1.4971909775162e-18 -0.20981877960987)

After: CellID : 36 ThetaD = 90 and uwall -0.0020824017256152
 Inside Phip> 0
 Inside the first hysteresis 
"0.279938" line 0.27993801236153 line count 15 id 15
Before: Hysteresis: For faceI 5240 with subFaceArea (0 0 0) and alphaf 0.067034959722738 and alphaf0 0.27993801236153
After: Hysteresis: For faceI 5240 with subFaceArea (0 0 -1.539296320376e-09) and alphaf 0.27993801236153 and alphaf0 0.27993801236153
 Inside Phip> 0
 Inside Phip> 0
 Inside the first hysteresis 
"0.279937" line 0.27993699908257 line count 36 id 36
Before: Hysteresis: For faceI 5261 with subFaceArea (0 0 0) and alphaf 0.48659404714463 and alphaf0 0.27993699908257
After: Hysteresis: For faceI 5261 with subFaceArea (0 0 -5.5305451836035e-09) and alphaf 0.27993699908257 and alphaf0 0.27993699908257
isoAdvection: After conservative bounding: min(alpha) = 0, max(alpha) = 1 + 0
Phase-1 volume fraction = 0.11125086666897  Min(alpha.oil) = 0  Max(alpha.oil) = 1.0000120568378

 From BC: theta 90 in cell 15
 and normal (0.9999999802377 0 0)

After: CellID : 15 ThetaD = 90 and uwall -0.0042333197363434

 From BC: theta 90 in cell 36
 and normal (-0.99999998025977 0 0)

After: CellID : 36 ThetaD = 90 and uwall -0.0020824017256152

 From BC: theta 78.70106068334 in cell 15
 and normal (0.98061828581524 0 -0.19592799066185)

After: CellID : 15 ThetaD = 90 and uwall -0.0042333197363434

 From BC: theta 77.882409652294 in cell 36
 and normal (-0.97771883579238 1.051375085144e-17 -0.20991874174735)

After: CellID : 36 ThetaD = 90 and uwall -0.0020824017256152

 From BC: theta 78.75404962767 in cell 15
 and normal (0.98079906680791 -6.2642321482106e-18 -0.1950210002762)

After: CellID : 15 ThetaD = 90 and uwall -0.0042333197363434

 From BC: theta 77.921587573 in cell 36
 and normal (-0.97786214622613 1.0515291918401e-17 -0.20925014451136)

After: CellID : 36 ThetaD = 90 and uwall -0.0020824017256152

 From BC: theta 79.166847739903 in cell 15
 and normal (0.98217866435284 0 -0.18794965039809)

After: CellID : 15 ThetaD = 90 and uwall -0.0042333197363434

 From BC: theta 78.863818185671 in cell 36
 and normal (-0.98117089219371 0 -0.19314160635788)

After: CellID : 36 ThetaD = 90 and uwall -0.0020824017256152
GAMG:  Solving for p_rgh, Initial residual = 0.0050067707208255, Final residual = 4.9704922670917e-05, No Iterations 2
time step continuity errors : sum local = 1.9920805422942e-07, global = -1.4249876353745e-08, cumulative = 3.7856603135705e-06
GAMG:  Solving for p_rgh, Initial residual = 0.0027364268040077, Final residual = 7.0915128754601e-05, No Iterations 2
time step continuity errors : sum local = 2.858862543388e-07, global = -6.6618747258552e-08, cumulative = 3.7190415663119e-06
GAMG:  Solving for p_rgh, Initial residual = 0.00051827547623402, Final residual = 6.8882716376376e-10, No Iterations 14
time step continuity errors : sum local = 2.7274498938179e-12, global = -5.088706968019e-13, cumulative = 3.7190410574412e-06
ExecutionTime = 0.41 s  ClockTime = 0 s

Courant Number mean: 0.24562439525737 max: 0.49356253516163
Interface Courant Number mean: 3.9614910783812e-05 max: 0.0058555410554335
Capillary Number: 0.43125643821741
Time = 0.00015

PIMPLE: iteration 1

 From BC: theta 78.695367077441 in cell 15
 and normal (0.9805988111841 6.3524740667597e-18 -0.19602543586059)

After: CellID : 15 ThetaD = 90 and uwall -0.004255433367852

 From BC: theta 77.915607815222 in cell 36
 and normal (-0.97784030220337 0 -0.20935219938379)

After: CellID : 36 ThetaD = 90 and uwall -0.00212673290259

 From BC: theta 78.751355424684 in cell 15
 and normal (0.98078989530709 6.5687975624571e-18 -0.19506711989342)

After: CellID : 15 ThetaD = 90 and uwall -0.004255433367852

 From BC: theta 77.940695449207 in cell 36
 and normal (-0.97793187579712 1.0516041744741e-17 -0.20892402039957)

After: CellID : 36 ThetaD = 90 and uwall -0.00212673290259

 From BC: theta 78.692681817809 in cell 15
 and normal (0.98058962305719 -6.9088834831812e-18 -0.19607139299895)

After: CellID : 15 ThetaD = 90 and uwall -0.004255433367852

 From BC: theta 77.93468556351 in cell 36
 and normal (-0.97790995589779 -1.0515806032436e-17 -0.20902659676699)

After: CellID : 36 ThetaD = 90 and uwall -0.00212673290259

 From BC: theta 78.75000461826 in cell 15
 and normal (0.98078529612826 -6.5691714780429e-18 -0.19509024296107)

After: CellID : 15 ThetaD = 90 and uwall -0.004255433367852

 From BC: theta 77.947569439774 in cell 36
 and normal (-0.97795693416101 1.0516311206047e-17 -0.20880669272413)

After: CellID : 36 ThetaD = 90 and uwall -0.00212673290259
 Inside Phip> 0
 Inside the first hysteresis 
"0.279938" line 0.27993801236153 line count 15 id 15
Before: Hysteresis: For faceI 5240 with subFaceArea (0 0 0) and alphaf 0.066652899924247 and alphaf0 0.27993801236153
After: Hysteresis: For faceI 5240 with subFaceArea (0 0 -1.5353426533224e-09) and alphaf 0.27993801236153 and alphaf0 0.27993801236153
 Inside Phip> 0
 Inside Phip> 0
 Inside the first hysteresis 
"0.279937" line 0.27993699908257 line count 36 id 36
Before: Hysteresis: For faceI 5261 with subFaceArea (0 0 0) and alphaf 0.48624873531659 and alphaf0 0.27993699908257
After: Hysteresis: For faceI 5261 with subFaceArea (0 0 -5.5221485553904e-09) and alphaf 0.27993699908257 and alphaf0 0.27993699908257
[...]
isoAdvection: After conservative bounding: min(alpha) = -2.8083583071034e-27, max(alpha) = 1 + 0
Phase-1 volume fraction = 0.11125086666901  Min(alpha.oil) = 0  Max(alpha.oil) = 1.0000126875802

 From BC: theta 90 in cell 15
 and normal (0.99999997928433 0 0)

After: CellID : 15 ThetaD = 90 and uwall -0.0050813068223199

 From BC: theta 90 in cell 36
 and normal (-0.99999998025977 0 0)

After: CellID : 36 ThetaD = 90 and uwall -0.00072063857248267

 From BC: theta 77.25446307064 in cell 15
 and normal (0.97535950883739 4.1758484621563e-19 -0.22062145979138)

After: CellID : 15 ThetaD = 90 and uwall -0.0050813068223199

 From BC: theta 81.137215131312 in cell 36
 and normal (-0.98806014586674 5.3124772785323e-18 -0.15406864752378)

After: CellID : 36 ThetaD = 90 and uwall -0.00072063857248267

 From BC: theta 77.66531696536 in cell 15
 and normal (0.97691644108004 0 -0.21362178528303)

After: CellID : 15 ThetaD = 90 and uwall -0.0050813068223199

 From BC: theta 81.166043340654 in cell 36
 and normal (-0.98813754000032 0 -0.15357148837632)

After: CellID : 36 ThetaD = 90 and uwall -0.00072063857248267

 From BC: theta 78.215789010643 in cell 15
 and normal (0.97892370451131 0 -0.2042262973776)

After: CellID : 15 ThetaD = 90 and uwall -0.0050813068223199

 From BC: theta 83.296538762037 in cell 36
 and normal (-0.99316359954384 0 -0.11673073432401)

After: CellID : 36 ThetaD = 90 and uwall -0.00072063857248267
GAMG:  Solving for p_rgh, Initial residual = 0.00088346309411448, Final residual = 3.1898377649025e-05, No Iterations 2
time step continuity errors : sum local = 1.2758950384425e-07, global = -3.3084640793048e-08, cumulative = 9.6467509587995e-06
GAMG:  Solving for p_rgh, Initial residual = 0.00054801084051306, Final residual = 2.6667924277752e-05, No Iterations 2
time step continuity errors : sum local = 1.0747048945288e-07, global = 4.3119952774139e-08, cumulative = 9.6898709115736e-06
GAMG:  Solving for p_rgh, Initial residual = 0.00013706099055742, Final residual = 7.3080063995475e-10, No Iterations 12
time step continuity errors : sum local = 2.9379982606357e-12, global = 1.3856487835001e-12, cumulative = 9.6898722972224e-06
ExecutionTime = 5.08 s  ClockTime = 5 s

Courant Number mean: 0.2503271322009 max: 0.51922001163517
Interface Courant Number mean: 3.8550191409413e-05 max: 0.0034547324048767
Capillary Number: 0.43125643821741
Time = 0.00197

PIMPLE: iteration 1

 From BC: theta 77.251450520357 in cell 15
 and normal (0.97534790745081 -1.9439376709389e-18 -0.22067274283728)

After: CellID : 15 ThetaD = 90 and uwall -0.0050788055968689

 From BC: theta 81.142562791474 in cell 36
 and normal (-0.98807452144892 -5.312554571351e-18 -0.1539764269734)

After: CellID : 36 ThetaD = 90 and uwall -0.00070970437643832

 From BC: theta 77.664177973628 in cell 15
 and normal (0.97691219426624 5.5217902650759e-19 -0.21364120551502)

After: CellID : 15 ThetaD = 90 and uwall -0.0050788055968689

 From BC: theta 81.170402501532 in cell 36
 and normal (-0.98814922112186 5.312956207139e-18 -0.15349630873822)

After: CellID : 36 ThetaD = 90 and uwall -0.00070970437643832

 From BC: theta 77.25071622662 in cell 15
 and normal (0.9753450792634 4.1734678060411e-19 -0.22068524272519)

After: CellID : 15 ThetaD = 90 and uwall -0.0050788055968689

 From BC: theta 81.146903424124 in cell 36
 and normal (-0.98808618361064 -5.3126172749925e-18 -0.15390157165461)

After: CellID : 36 ThetaD = 90 and uwall -0.00070970437643832

 From BC: theta 77.663868674493 in cell 15
 and normal (0.97691104095519 -4.4325314643649e-19 -0.21364647916556)

After: CellID : 15 ThetaD = 90 and uwall -0.0050788055968689

 From BC: theta 81.171505481126 in cell 36
 and normal (-0.98815217583872 0 -0.15347728621919)

After: CellID : 36 ThetaD = 90 and uwall -0.00070970437643832
 Inside Phip> 0
 Inside the first hysteresis 
"0.279938" line 0.27993801236153 line count 15 id 15
Before: Hysteresis: For faceI 5240 with subFaceArea (0 0 0) and alphaf 0.0090666165371476 and alphaf0 0.27993801236153
After: Hysteresis: For faceI 5240 with subFaceArea (0 0 -5.9375594907174e-10) and alphaf 0.27993801236153 and alphaf0 0.27993801236153
 Inside Phip> 0
 Inside Phip> 0
 Inside the first hysteresis 
"0.279937" line 0.27993699908257 line count 36 id 36
Before: Hysteresis: For faceI 5261 with subFaceArea (0 0 0) and alphaf 0.43492298452275 and alphaf0 0.27993699908257
After: Hysteresis: For faceI 5261 with subFaceArea (0 0 -4.7678260337865e-09) and alphaf 0.27993699908257 and alphaf0 0.27993699908257
isoAdvection: After conservative bounding: min(alpha) = -2.989962896375e-27, max(alpha) = 1 + 0
Phase-1 volume fraction = 0.11125086666901  Min(alpha.oil) = 0  Max(alpha.oil) = 1.0000126934854

 From BC: theta 90 in cell 15
 and normal (0.99999997927527 0 0)

After: CellID : 15 ThetaD = 90 and uwall -0.0050788055968689

 From BC: theta 90 in cell 36
 and normal (-0.99999998025977 0 0)

After: CellID : 36 ThetaD = 90 and uwall -0.00070970437643832

 From BC: theta 77.250521206215 in cell 15
 and normal (0.97534432810076 -7.3545209819441e-18 -0.22068856255294)

After: CellID : 15 ThetaD = 90 and uwall -0.0050788055968689

 From BC: theta 81.148000769861 in cell 36
 and normal (-0.9880891309979 0 -0.15388264750717)

After: CellID : 36 ThetaD = 90 and uwall -0.00070970437643832

 From BC: theta 77.662163367086 in cell 15
 and normal (0.97690468171341 0 -0.21367555509795)

After: CellID : 15 ThetaD = 90 and uwall -0.0050788055968689

 From BC: theta 81.176858461633 in cell 36
 and normal (-0.98816651046917 0 -0.15338496532312)

After: CellID : 36 ThetaD = 90 and uwall -0.00070970437643832

 From BC: theta 78.212461498208 in cell 15
 and normal (0.97891184220421 0 -0.20428314905311)

After: CellID : 15 ThetaD = 90 and uwall -0.0050788055968689

 From BC: theta 83.312246512048 in cell 36
 and normal (-0.99319556417982 0 -0.11645845219746)

After: CellID : 36 ThetaD = 90 and uwall -0.00070970437643832
GAMG:  Solving for p_rgh, Initial residual = 0.00083198457108273, Final residual = 3.1249371204018e-05, No Iterations 2
time step continuity errors : sum local = 1.2530007841634e-07, global = -3.6644043407827e-08, cumulative = 9.6532282538146e-06
GAMG:  Solving for p_rgh, Initial residual = 0.00054774283064946, Final residual = 2.6735302639785e-05, No Iterations 2
time step continuity errors : sum local = 1.0799339917893e-07, global = 4.2781499902986e-08, cumulative = 9.6960097537176e-06
GAMG:  Solving for p_rgh, Initial residual = 0.00013734808630595, Final residual = 7.1658812258819e-10, No Iterations 12
time step continuity errors : sum local = 2.8877407390908e-12, global = 1.3602447615061e-12, cumulative = 9.6960111139623e-06
ExecutionTime = 5.1 s  ClockTime = 5 s

Courant Number mean: 0.25030192502386 max: 0.51924589466706
Interface Courant Number mean: 3.8549065919104e-05 max: 0.0034583323075144
Capillary Number: 0.43125643821741
Time = 0.00198

PIMPLE: iteration 1

 From BC: theta 77.247529850439 in cell 15
 and normal (0.97533280484068 1.322607186136e-18 -0.22073948401138)

After: CellID : 15 ThetaD = 90 and uwall -0.005076351491823

 From BC: theta 81.153361228228 in cell 36
 and normal (-0.98810352357205 5.3127105063119e-18 -0.15379020353881)

After: CellID : 36 ThetaD = 90 and uwall -0.00069885501531104

 From BC: theta 77.661036811014 in cell 15
 and normal (0.97690048021174 -1.6708196556105e-20 -0.21369476306657)

After: CellID : 15 ThetaD = 90 and uwall -0.005076351491823

 From BC: theta 81.181213696922 in cell 36
 and normal (-0.9881781668957 0 -0.15330985118593)

After: CellID : 36 ThetaD = 90 and uwall -0.00069885501531104

 From BC: theta 77.246807384209 in cell 15
 and normal (0.97533002136751 -1.2108627418307e-17 -0.22075178236939)

After: CellID : 15 ThetaD = 90 and uwall -0.005076351491823

 From BC: theta 81.157697938327 in cell 36
 and normal (-0.98811516110214 0 -0.15371541367116)

After: CellID : 36 ThetaD = 90 and uwall -0.00069885501531104

 From BC: theta 77.660733268447 in cell 15
 and normal (0.97689934808223 -1.682782184691e-20 -0.21369993850375)

After: CellID : 15 ThetaD = 90 and uwall -0.005076351491823

 From BC: theta 81.182318248152 in cell 36
 and normal (-0.98818112222793 0 -0.15329080100368)

After: CellID : 36 ThetaD = 90 and uwall -0.00069885501531104
 Inside Phip> 0
 Inside the first hysteresis 
"0.279938" line 0.27993801236153 line count 15 id 15
Before: Hysteresis: For faceI 5240 with subFaceArea (0 0 0) and alphaf 0.0088871629675068 and alphaf0 0.27993801236153
After: Hysteresis: For faceI 5240 with subFaceArea (0 0 -5.8792760161669e-10) and alphaf 0.27993801236153 and alphaf0 0.27993801236153
 Inside Phip> 0
 Inside Phip> 0
 Inside the first hysteresis 
"0.279937" line 0.27993699908257 line count 36 id 36
Before: Hysteresis: For faceI 5261 with subFaceArea (0 0 0) and alphaf 0.43480370710874 and alphaf0 0.27993699908257
After: Hysteresis: For faceI 5261 with subFaceArea (0 0 -4.7657940870741e-09) and alphaf 0.27993699908257 and alphaf0 0.27993699908257
isoAdvection: After conservative bounding: min(alpha) = 0, max(alpha) = 1 + 0
Phase-1 volume fraction = 0.11125086666902  Min(alpha.oil) = 0  Max(alpha.oil) = 1.0000126993749

 From BC: theta 90 in cell 15
 and normal (0.99999997926617 0 0)

After: CellID : 15 ThetaD = 90 and uwall -0.005076351491823

 From BC: theta 90 in cell 36
 and normal (-0.99999998025977 0 0)

After: CellID : 36 ThetaD = 90 and uwall -0.00069885501531104

 From BC: theta 77.246617155409 in cell 15
 and normal (0.97532928843997 -6.299009823282e-18 -0.22075502057981)

After: CellID : 15 ThetaD = 90 and uwall -0.005076351491823

 From BC: theta 81.158796840294 in cell 36
 and normal (-0.98811810909864 0 -0.15369646213018)

After: CellID : 36 ThetaD = 90 and uwall -0.00069885501531104

 From BC: theta 77.659039532727 in cell 15
 and normal (0.97689303041488 1.4704780086841e-18 -0.21372881679086)

After: CellID : 15 ThetaD = 90 and uwall -0.005076351491823

 From BC: theta 81.187683536278 in cell 36
 and normal (-0.98819547234379 5.3132048848805e-18 -0.15319826513128)

After: CellID : 36 ThetaD = 90 and uwall -0.00069885501531104

 From BC: theta 78.209162115652 in cell 15
 and normal (0.97890007691787 0 -0.20433951943982)

After: CellID : 15 ThetaD = 90 and uwall -0.005076351491823

 From BC: theta 83.327918286394 in cell 36
 and normal (-0.99322738121515 0 -0.11618678495934)

After: CellID : 36 ThetaD = 90 and uwall -0.00069885501531104
GAMG:  Solving for p_rgh, Initial residual = 0.00086248491615808, Final residual = 3.1750405608424e-05, No Iterations 2
time step continuity errors : sum local = 1.2761376822367e-07, global = -3.7606545622335e-08, cumulative = 9.65840456834e-06
GAMG:  Solving for p_rgh, Initial residual = 0.00054695801410594, Final residual = 2.6828193725386e-05, No Iterations 2
time step continuity errors : sum local = 1.0861384801364e-07, global = 4.2180970867221e-08, cumulative = 9.7005855392072e-06
GAMG:  Solving for p_rgh, Initial residual = 0.00013786459326679, Final residual = 6.9578428933124e-10, No Iterations 12
time step continuity errors : sum local = 2.8104452908534e-12, global = 1.3217457690148e-12, cumulative = 9.700586860953e-06
ExecutionTime = 5.13 s  ClockTime = 5 s

Courant Number mean: 0.25027806408935 max: 0.51927118403434
Interface Courant Number mean: 3.8547874497384e-05 max: 0.0034618105821922
Capillary Number: 0.43125643821741
Time = 0.00199

PIMPLE: iteration 1

 From BC: theta 77.24364683061 in cell 15
 and normal (0.97531784275912 -2.4099466943996e-18 -0.22080558325298)

After: CellID : 15 ThetaD = 90 and uwall -0.0050739388648345

 From BC: theta 81.164169962549 in cell 36
 and normal (-0.98813251820413 -5.3128664009958e-18 -0.15360379704799)

After: CellID : 36 ThetaD = 90 and uwall -0.00068808683551246

 From BC: theta 77.657925320252 in cell 15
 and normal (0.97688887391506 2.1306829387096e-19 -0.21374781407294)

After: CellID : 15 ThetaD = 90 and uwall -0.0050739388648345

 From BC: theta 81.192034961925 in cell 36
 and normal (-0.98820710439727 5.3132674266398e-18 -0.15312321449981)

After: CellID : 36 ThetaD = 90 and uwall -0.00068808683551246

 From BC: theta 77.242936015294 in cell 15
 and normal (0.97531510335506 1.1120456960204e-17 -0.22081768309513)

After: CellID : 15 ThetaD = 90 and uwall -0.0050739388648345

 From BC: theta 81.168502866025 in cell 36
 and normal (-0.98814413142488 0 -0.15352907063671)

After: CellID : 36 ThetaD = 90 and uwall -0.00068808683551246

 From BC: theta 77.657627433092 in cell 15
 and normal (0.97688776260309 9.0283073368169e-19 -0.21375289302446)

After: CellID : 15 ThetaD = 90 and uwall -0.0050739388648345

 From BC: theta 81.193141171289 in cell 36
 and normal (-0.98821006056232 -5.3132833209755e-18 -0.15310413516105)

After: CellID : 36 ThetaD = 90 and uwall -0.00068808683551246
 Inside Phip> 0
 Inside the first hysteresis 
"0.279938" line 0.27993801236153 line count 15 id 15
Before: Hysteresis: For faceI 5240 with subFaceArea (0 0 0) and alphaf 0.0087094779452947 and alphaf0 0.27993801236153
After: Hysteresis: For faceI 5240 with subFaceArea (0 0 -5.8209613653296e-10) and alphaf 0.27993801236153 and alphaf0 0.27993801236153
 Inside Phip> 0
 Inside Phip> 0
 Inside the first hysteresis 
"0.279937" line 0.27993699908257 line count 36 id 36
Before: Hysteresis: For faceI 5261 with subFaceArea (0 0 0) and alphaf 0.4346860403445 and alphaf0 0.27993699908257
After: Hysteresis: For faceI 5261 with subFaceArea (0 0 -4.7637762134691e-09) and alphaf 0.27993699908257 and alphaf0 0.27993699908257
isoAdvection: After conservative bounding: min(alpha) = 0, max(alpha) = 1 + 0
Phase-1 volume fraction = 0.11125086666902  Min(alpha.oil) = 0  Max(alpha.oil) = 1.0000127052485

 From BC: theta 90 in cell 15
 and normal (0.99999997925703 0 0)

After: CellID : 15 ThetaD = 90 and uwall -0.0050739388648345

 From BC: theta 90 in cell 36
 and normal (-0.99999998025977 0 0)

After: CellID : 36 ThetaD = 90 and uwall -0.00068808683551246

 From BC: theta 77.242750457752 in cell 15
 and normal (0.975314388212 -1.4557445768469e-18 -0.22082084173976)

After: CellID : 15 ThetaD = 90 and uwall -0.0050739388648345

 From BC: theta 81.169603410368 in cell 36
 and normal (-0.98814708024776 0 -0.15351009021502)

After: CellID : 36 ThetaD = 90 and uwall -0.00068808683551246

 From BC: theta 77.655945154842 in cell 15
 and normal (0.97688148612039 -1.0286203073131e-18 -0.21378157562152)

After: CellID : 15 ThetaD = 90 and uwall -0.0050739388648345

 From BC: theta 81.198518662416 in cell 36
 and normal (-0.98822442578708 0 -0.15301138610509)

After: CellID : 36 ThetaD = 90 and uwall -0.00068808683551246

 From BC: theta 78.205890727215 in cell 15
 and normal (0.97888840825102 0 -0.20439541087432)

After: CellID : 15 ThetaD = 90 and uwall -0.0050739388648345

 From BC: theta 83.343554211262 in cell 36
 and normal (-0.99325905141449 0 -0.11591573050235)

After: CellID : 36 ThetaD = 90 and uwall -0.00068808683551246
GAMG:  Solving for p_rgh, Initial residual = 0.0008399355440493, Final residual = 3.1120658559015e-05, No Iterations 2
time step continuity errors : sum local = 1.2538330353703e-07, global = -3.7211391221652e-08, cumulative = 9.6633754697313e-06
GAMG:  Solving for p_rgh, Initial residual = 0.00054627929409202, Final residual = 2.6772254548074e-05, No Iterations 2
time step continuity errors : sum local = 1.0864322280714e-07, global = 4.2145171523793e-08, cumulative = 9.7055206412551e-06
GAMG:  Solving for p_rgh, Initial residual = 0.00013807358950712, Final residual = 6.8600831025459e-10, No Iterations 12
time step continuity errors : sum local = 2.7775527206515e-12, global = 1.3053502872154e-12, cumulative = 9.7055219466054e-06
ExecutionTime = 5.16 s  ClockTime = 5 s

Courant Number mean: 0.25025188430622 max: 0.51929582133537
Interface Courant Number mean: 3.8546593027098e-05 max: 0.0034651567867544
Capillary Number: 0.43125643821741
Time = 0.002

PIMPLE: iteration 1

 From BC: theta 77.239801026343 in cell 15
 and normal (0.97530301966143 9.7863604122057e-19 -0.22087104798794)

After: CellID : 15 ThetaD = 90 and uwall -0.0050715642183147

 From BC: theta 81.174989084878 in cell 36
 and normal (-0.9881615054858 0 -0.15341720593217)

After: CellID : 36 ThetaD = 90 and uwall -0.00067741117207848

 From BC: theta 77.654843207085 in cell 15
 and normal (0.97687737436065 8.5490799695129e-19 -0.21380036356901)

After: CellID : 15 ThetaD = 90 and uwall -0.0050715642183147

 From BC: theta 81.202866409959 in cell 36
 and normal (-0.98823603382988 0 -0.15293639671507)

After: CellID : 36 ThetaD = 90 and uwall -0.00067741117207848

 From BC: theta 77.23910174448 in cell 15
 and normal (0.97530032390825 -1.4565140167731e-18 -0.22088295132142)

After: CellID : 15 ThetaD = 90 and uwall -0.0050715642183147

 From BC: theta 81.179318313179 in cell 36
 and normal (-0.98817309475982 5.313084567907e-18 -0.15334254071458)

After: CellID : 36 ThetaD = 90 and uwall -0.00067741117207848

 From BC: theta 77.654550941863 in cell 15
 and normal (0.97687628375434 -1.3692141395587e-18 -0.21380534660834)

After: CellID : 15 ThetaD = 90 and uwall -0.0050715642183147

 From BC: theta 81.20397436752 in cell 36
 and normal (-0.98823899105381 0 -0.15291728666485)

After: CellID : 36 ThetaD = 90 and uwall -0.00067741117207848
 Inside Phip> 0
 Inside the first hysteresis 
"0.279938" line 0.27993801236153 line count 15 id 15
Before: Hysteresis: For faceI 5240 with subFaceArea (0 0 0) and alphaf 0.0085335607079922 and alphaf0 0.27993801236153
After: Hysteresis: For faceI 5240 with subFaceArea (0 0 -5.7626152968603e-10) and alphaf 0.27993801236153 and alphaf0 0.27993801236153
 Inside Phip> 0
isoAdvection: After conservative bounding: min(alpha) = -5.4759378296702e-27, max(alpha) = 1 + 0
Phase-1 volume fraction = 0.11125086666902  Min(alpha.oil) = 0  Max(alpha.oil) = 1.0000127111064

 From BC: theta 90 in cell 15
 and normal (0.99999997924783 0 0)

After: CellID : 15 ThetaD = 90 and uwall -0.0050715642183147

 From BC: theta 90 in cell 36
 and normal (-0.99999998025977 0 0)

After: CellID : 36 ThetaD = 90 and uwall -0.00067741117207848

 From BC: theta 77.238921069487 in cell 15
 and normal (0.97529962737696 9.1681965986616e-19 -0.22088602680651)

After: CellID : 15 ThetaD = 90 and uwall -0.0050715642183147

 From BC: theta 81.180420589598 in cell 36
 and normal (-0.98817604463485 5.3131004284233e-18 -0.15332352986359)

After: CellID : 36 ThetaD = 90 and uwall -0.00067741117207848

 From BC: theta 77.652880187705 in cell 15
 and normal (0.97687004874067 -5.3897670968951e-19 -0.2138338323872)

After: CellID : 15 ThetaD = 90 and uwall -0.0050715642183147

 From BC: theta 81.209363963305 in cell 36
 and normal (-0.98825337102842 0 -0.15282432610997)

After: CellID : 36 ThetaD = 90 and uwall -0.00067741117207848

 From BC: theta 78.202646969106 in cell 15
 and normal (0.97887683498752 0 -0.20445082958874)

After: CellID : 15 ThetaD = 90 and uwall -0.0050715642183147

 From BC: theta 83.359154434827 in cell 36
 and normal (-0.99329057558333 0 -0.11564528633733)

After: CellID : 36 ThetaD = 90 and uwall -0.00067741117207848
GAMG:  Solving for p_rgh, Initial residual = 0.00083141951339772, Final residual = 3.1351596175184e-05, No Iterations 2
time step continuity errors : sum local = 1.2661881743525e-07, global = -3.8790866352219e-08, cumulative = 9.6667310802532e-06
GAMG:  Solving for p_rgh, Initial residual = 0.00054715898973599, Final residual = 2.6789790117074e-05, No Iterations 2
time step continuity errors : sum local = 1.0896915594744e-07, global = 4.1577724273511e-08, cumulative = 9.7083088045267e-06
GAMG:  Solving for p_rgh, Initial residual = 0.00013852929202011, Final residual = 6.6808948241214e-10, No Iterations 12
time step continuity errors : sum local = 2.7115294051082e-12, global = 1.272834705424e-12, cumulative = 9.7083100773614e-06
ExecutionTime = 5.18 s  ClockTime = 5 s

End

