/*---------------------------------------------------------------------------*\
| =========                 |                                                 |
| \\      /  F ield         | OpenFOAM: The Open Source CFD Toolbox           |
|  \\    /   O peration     | Version:  2312                                  |
|   \\  /    A nd           | Website:  www.openfoam.com                      |
|    \\/     M anipulation  |                                                 |
\*---------------------------------------------------------------------------*/
Build  : 1d8f0d55f7-20231221 OPENFOAM=2312 version=v2312
Arch   : "LSB;label=32;scalar=64"
Exec   : surfaceInitVolumeFraction
Date   : Apr 26 2024
Time   : 17:19:03
Host   : mma110629
PID    : 2180412
I/O    : uncollated
Case   : /home/asghar/OpenFOAM/TwoPhaseFlow-fork-v2212/run/growingDroplet/flowDroplet
nProcs : 1
trapFpe: Floating point exception trapping enabled (FOAM_SIGFPE).
fileModificationChecking : Monitoring run-time modified files using timeStampMaster (fileModificationSkew 5, maxFileModificationPolls 20)
allowSystemOperations : Allowing user-supplied system call operations

// * * * * * * * * * * * * * * * * * * * * * * * * * * * * * * * * * * * * * //
Create time

Overriding OptimisationSwitches according to controlDict
    fileHandler (unregistered)
    maxThreadFileBufferSize 2e+09;

    maxMasterFileBufferSize 2e+09;

Overriding fileHandler to collated
I/O    : collated [threaded] (maxThreadFileBufferSize = 2e+09).
         Requires buffer large enough to collect all data or thread support
         enabled in MPI. If MPI thread support cannot be enabled, deactivate
         threading by setting maxThreadFileBufferSize to 0 in
         OpenFOAM etc/controlDict
Create mesh for time = 0

<------------------------------------------>
Configuration:
{
    fieldName       alpha.oil;
    algorithm       SMCA;
    writeGeometry   off;
    invert          off;
    writeAllFields  on;
    checkVolume     off;
    refinementLevel 4;
    relError        -1;
    radius          0.001;
    distCalc
    {
        surfaceType     levelSet;
        surface         sphere;
        center          ( 0.0025 0 -8.7904942529426e-05 );
        radius          0.001;
        orientation     inward;
        narrowBandWidth 4;
        bulkValue       1;
        surfaceFile     "surface.stl";
    }
}
<------------------------------------------>
Computing volume fraction for interface cells...
Number of cells flagged as interface cells: 52
Finished volume fraction calculation


ExecutionTime = 0.13 s  ClockTime = 0 s

End

